REMARK VINA RESULT:      -3.6      0.000      0.000
REMARK  14 active torsions:
REMARK  status: ('A' for Active; 'I' for Inactive)
REMARK    1  A    between atoms: C_3  and  C_21 
REMARK    2  A    between atoms: C_3  and  O_17 
REMARK    3  A    between atoms: C_8  and  N_27 
REMARK    4  A    between atoms: O_12  and  C_20 
REMARK    5  A    between atoms: O_13  and  C_22 
REMARK    6  A    between atoms: O_14  and  P_32 
REMARK    7  A    between atoms: O_15  and  P_33 
REMARK    8  A    between atoms: O_16  and  P_33 
REMARK    9  A    between atoms: O_17  and  P_31 
REMARK   10  A    between atoms: O_18  and  P_31 
REMARK   11  A    between atoms: O_18  and  P_32 
REMARK   12  A    between atoms: C_19  and  N_36 
REMARK   13  A    between atoms: S_37  and  P_31 
REMARK   14  A    between atoms: P_33  and  P_32 
REMARK  4 active torsions:
REMARK  status: ('A' for Active; 'I' for Inactive)
REMARK    1  A    between atoms: CA   and  CB  
REMARK    2  A    between atoms: CB   and  CG  
REMARK    3  A    between atoms: CG   and  CD  
REMARK    4  A    between atoms: CD   and  NE  
REMARK       I    between atoms: NE   and  CZ  
REMARK  2 active torsions:
REMARK  status: ('A' for Active; 'I' for Inactive)
REMARK    5  A    between atoms: CA   and  CB  
REMARK    6  A    between atoms: CB   and  SG  
REMARK  3 active torsions:
REMARK  status: ('A' for Active; 'I' for Inactive)
REMARK    7  A    between atoms: CA   and  CB  
REMARK    8  A    between atoms: CB   and  CG  
REMARK    9  A    between atoms: CG   and  CD  
REMARK  1 active torsions:
REMARK  status: ('A' for Active; 'I' for Inactive)
REMARK   10  A    between atoms: CA   and  CB  
REMARK  1 active torsions:
REMARK  status: ('A' for Active; 'I' for Inactive)
REMARK   11  A    between atoms: CA   and  CB  
REMARK  2 active torsions:
REMARK  status: ('A' for Active; 'I' for Inactive)
REMARK   12  A    between atoms: CA   and  CB  
REMARK   13  A    between atoms: CB   and  CG  
REMARK  2 active torsions:
REMARK  status: ('A' for Active; 'I' for Inactive)
REMARK   14  A    between atoms: CA   and  CB  
REMARK   15  A    between atoms: CB   and  CG  
REMARK  2 active torsions:
REMARK  status: ('A' for Active; 'I' for Inactive)
REMARK   16  A    between atoms: CA   and  CB  
REMARK   17  A    between atoms: CB   and  CG  
REMARK  3 active torsions:
REMARK  status: ('A' for Active; 'I' for Inactive)
REMARK   18  A    between atoms: CA   and  CB  
REMARK   19  A    between atoms: CB   and  CG  
REMARK   20  A    between atoms: CG   and  SD  
REMARK  2 active torsions:
REMARK  status: ('A' for Active; 'I' for Inactive)
REMARK   21  A    between atoms: CA   and  CB  
REMARK   22  A    between atoms: CB   and  CG  
REMARK  1 active torsions:
REMARK  status: ('A' for Active; 'I' for Inactive)
REMARK   23  A    between atoms: CA   and  CB  
REMARK  2 active torsions:
REMARK  status: ('A' for Active; 'I' for Inactive)
REMARK   24  A    between atoms: CA   and  CB  
REMARK   25  A    between atoms: CB   and  CG  
REMARK  1 active torsions:
REMARK  status: ('A' for Active; 'I' for Inactive)
REMARK   26  A    between atoms: CA   and  CB  
REMARK  4 active torsions:
REMARK  status: ('A' for Active; 'I' for Inactive)
REMARK   27  A    between atoms: CA   and  CB  
REMARK   28  A    between atoms: CB   and  CG  
REMARK   29  A    between atoms: CG   and  CD  
REMARK   30  A    between atoms: CD   and  CE  
REMARK  4 active torsions:
REMARK  status: ('A' for Active; 'I' for Inactive)
REMARK   31  A    between atoms: CA   and  CB  
REMARK   32  A    between atoms: CB   and  CG  
REMARK   33  A    between atoms: CG   and  CD  
REMARK   34  A    between atoms: CD   and  CE  
REMARK  2 active torsions:
REMARK  status: ('A' for Active; 'I' for Inactive)
REMARK   35  A    between atoms: CA   and  CB  
REMARK   36  A    between atoms: CB   and  SG  
REMARK  1 active torsions:
REMARK  status: ('A' for Active; 'I' for Inactive)
REMARK   37  A    between atoms: CA   and  CB  
REMARK  4 active torsions:
REMARK  status: ('A' for Active; 'I' for Inactive)
REMARK   38  A    between atoms: CA   and  CB  
REMARK   39  A    between atoms: CB   and  CG  
REMARK   40  A    between atoms: CG   and  CD  
REMARK   41  A    between atoms: CD   and  CE  
REMARK  2 active torsions:
REMARK  status: ('A' for Active; 'I' for Inactive)
REMARK   42  A    between atoms: CA   and  CB  
REMARK   43  A    between atoms: CB   and  CG  
REMARK  1 active torsions:
REMARK  status: ('A' for Active; 'I' for Inactive)
REMARK   44  A    between atoms: CA   and  CB  
REMARK  2 active torsions:
REMARK  status: ('A' for Active; 'I' for Inactive)
REMARK   45  A    between atoms: CA   and  CB  
REMARK   46  A    between atoms: CB   and  CG  
REMARK  1 active torsions:
REMARK  status: ('A' for Active; 'I' for Inactive)
REMARK   47  A    between atoms: CA   and  CB  
REMARK  4 active torsions:
REMARK  status: ('A' for Active; 'I' for Inactive)
REMARK   48  A    between atoms: CA   and  CB  
REMARK   49  A    between atoms: CB   and  CG  
REMARK   50  A    between atoms: CG   and  CD  
REMARK   51  A    between atoms: CD   and  NE  
REMARK       I    between atoms: NE   and  CZ  
REMARK  2 active torsions:
REMARK  status: ('A' for Active; 'I' for Inactive)
REMARK   52  A    between atoms: CA   and  CB  
REMARK   53  A    between atoms: CB   and  CG  
REMARK  3 active torsions:
REMARK  status: ('A' for Active; 'I' for Inactive)
REMARK   54  A    between atoms: CA   and  CB  
REMARK   55  A    between atoms: CB   and  CG  
REMARK   56  A    between atoms: CG   and  CD  
REMARK  2 active torsions:
REMARK  status: ('A' for Active; 'I' for Inactive)
REMARK   57  A    between atoms: CA   and  CB  
REMARK   58  A    between atoms: CB   and  CG  
REMARK  4 active torsions:
REMARK  status: ('A' for Active; 'I' for Inactive)
REMARK   59  A    between atoms: CA   and  CB  
REMARK   60  A    between atoms: CB   and  CG  
REMARK   61  A    between atoms: CG   and  CD  
REMARK   62  A    between atoms: CD   and  CE  
REMARK viewdock state: V
ATOM      1  C   LIG d 111      11.855  -1.180  54.346  0.00  0.00     0.434 A 
ATOM      2  C   LIG d 111      14.356  -4.601  53.296  0.00  0.00     0.230 A 
ATOM      3  C   LIG d 111      12.308  -4.051  52.351  0.00  0.00     0.152 A 
ATOM      4  N   LIG d 111      14.448  -3.555  54.149  0.00  0.00    -0.173 NA
ATOM      5  N   LIG d 111      11.346  -1.939  53.397  0.00  0.00    -0.182 NA
ATOM      6  N   LIG d 111      13.366  -4.890  52.425  0.00  0.00    -0.218 NA
ATOM      7  C   LIG d 111      13.360  -2.769  54.051  0.00  0.00     0.339 A 
ATOM      8  C   LIG d 111      12.276  -2.937  53.206  0.00  0.00     0.201 A 
ATOM      9  N   LIG d 111      13.085  -1.626  54.755  0.00  0.00    -0.132 N 
ATOM     10  C   LIG d 111      13.927  -1.047  55.787  0.00  0.00     0.443 C 
ATOM     11  O   LIG d 111      13.910   0.391  55.662  0.00  0.00    -0.309 OA
ATOM     12  C   LIG d 111      15.264   0.881  55.804  0.00  0.00     0.182 C 
ATOM     13  C   LIG d 111      16.094  -0.282  56.330  0.00  0.00     0.183 C 
ATOM     14  C   LIG d 111      15.399  -1.471  55.694  0.00  0.00     0.244 C 
ATOM     15  C   LIG d 111      15.263   2.111  56.708  0.00  0.00     0.203 C 
ATOM     16  O   LIG d 111      15.102   3.277  55.900  0.00  0.00    -0.321 OA
ATOM     17  P   LIG d 111      16.393   3.886  55.115  0.00  0.00     0.234 P 
ATOM     18  S   LIG d 111      16.063   5.682  54.448  0.00  0.00     0.003 SA
ATOM     19  O   LIG d 111      16.401   2.822  53.901  0.00  0.00    -0.238 OA
ATOM     20  P   LIG d 111      17.495   2.769  52.729  0.00  0.00     0.445 P 
ATOM     21  O   LIG d 111      18.781   3.406  53.185  0.00  0.00    -0.245 OA
ATOM     22  O   LIG d 111      17.755   1.166  52.668  0.00  0.00    -0.316 OA
ATOM     23  H   LIG d 111      18.477   0.949  52.047  0.00  0.00     0.220 HD
ATOM     24  P   LIG d 111      16.712   3.629  50.648  0.00  0.00     0.438 P 
ATOM     25  O   LIG d 111      15.700   2.729  50.000  0.00  0.00    -0.246 OA
ATOM     26  O   LIG d 111      17.896   3.955  49.601  0.00  0.00    -0.316 OA
ATOM     27  H   LIG d 111      17.939   4.916  49.428  0.00  0.00     0.220 HD
ATOM     28  O   LIG d 111      16.133   5.136  50.775  0.00  0.00    -0.316 OA
ATOM     29  H   LIG d 111      16.720   5.749  51.256  0.00  0.00     0.220 HD
ATOM     30  S   LIG d  11      18.049   3.470  56.339  0.00  0.00    -0.091 SA
ATOM     31  H   LIG d  11      17.370   2.761  57.251  0.00  0.00     0.111 HD
ATOM     32  O   LIG d 111      16.016  -0.389  57.755  0.00  0.00    -0.386 OA
ATOM     33  H   LIG d 111      15.072  -0.230  57.973  0.00  0.00     0.210 HD
ATOM     34  O   LIG d 111      15.721  -2.661  56.415  0.00  0.00    -0.380 OA
ATOM     35  H   LIG d 111      15.754  -2.407  57.365  0.00  0.00     0.210 HD
ATOM     36  N   LIG d 111      11.295  -4.348  51.448  0.00  0.00    -0.341 NA
ATOM     37  H   LIG d 111      10.398  -4.506  51.896  0.00  0.00     0.144 HD
ATOM     38  H   LIG d 111      11.593  -5.020  50.752  0.00  0.00     0.144 HD
ATOM      1  CA  ARG A  93      11.357   9.429  58.493  1.00 59.89     0.186 C 
ATOM      2  CB  ARG A  93      12.236   9.564  59.757  1.00 58.23     0.036 C 
ATOM      3  CG  ARG A  93      11.599   9.084  61.075  1.00 60.51     0.029 C 
ATOM      4  CD  ARG A  93      11.206   7.609  61.095  1.00 61.21     0.145 C 
ATOM      5  NE  ARG A  93      11.255   7.065  62.454  1.00 60.36    -0.083 NA
ATOM      6  CZ  ARG A  93      11.622   5.825  62.771  1.00 66.21     0.782 C 
ATOM      7  NH2 ARG A  93      11.631   5.435  64.037  1.00 48.93     0.063 N 
ATOM      8  NH1 ARG A  93      11.974   4.964  61.822  1.00 52.54     0.063 N 
ATOM      9  CA  CYS A  97      10.408   3.635  56.475  1.00 55.45     0.198 C 
ATOM     10  CB  CYS A  97      10.309   3.703  57.996  1.00 56.61     0.103 C 
ATOM     11  SG  CYS A  97       8.688   3.246  58.659  1.00 59.92    -0.080 SA
ATOM     12  CA  GLN A  98       6.821   2.814  55.435  1.00 57.21     0.187 C 
ATOM     13  CB  GLN A  98       5.702   3.596  56.134  1.00 60.72     0.044 C 
ATOM     14  CG  GLN A  98       5.154   4.816  55.415  1.00 78.15     0.094 C 
ATOM     15  CD  GLN A  98       4.796   5.921  56.379  1.00 97.60     0.274 C 
ATOM     16  OE1 GLN A  98       4.158   6.925  56.028  1.00 90.91    -0.269 OA
ATOM     17  NE2 GLN A  98       5.208   5.758  57.624  1.00 94.53    -0.107 N 
ATOM     18  CA  SER A 101      12.406   3.303  51.001  1.00 47.65     0.219 C 
ATOM     19  CB  SER A 101      13.190   3.322  52.316  1.00 49.57     0.216 C 
ATOM     20  OG  SER A 101      14.080   4.416  52.463  1.00 54.41    -0.218 OA
ATOM     21  CA  VAL A 102      10.122   0.251  50.319  1.00 45.51     0.186 C 
ATOM     22  CB  VAL A 102       8.740  -0.096  50.947  1.00 49.19     0.032 C 
ATOM     23  CG1 VAL A 102       8.562   0.594  52.297  1.00 48.60     0.003 C 
ATOM     24  CG2 VAL A 102       7.595   0.282  50.008  1.00 48.10     0.003 C 
ATOM     25  CA  TYR A 105      14.000  -1.737  47.254  1.00 43.40     0.191 C 
ATOM     26  CB  TYR A 105      13.781  -2.368  48.630  1.00 43.23     0.060 C 
ATOM     27  CG  TYR A 105      13.448  -3.845  48.607  1.00 42.60    -0.020 A 
ATOM     28  CD2 TYR A 105      14.383  -4.794  49.009  1.00 43.44    -0.002 A 
ATOM     29  CE2 TYR A 105      14.066  -6.149  49.051  1.00 43.57     0.027 A 
ATOM     30  CZ  TYR A 105      12.792  -6.571  48.709  1.00 47.42     0.131 A 
ATOM     31  OH  TYR A 105      12.490  -7.910  48.770  1.00 47.92    -0.190 OA
ATOM     32  CE1 TYR A 105      11.843  -5.646  48.306  1.00 40.45     0.027 A 
ATOM     33  CD1 TYR A 105      12.168  -4.288  48.279  1.00 42.63    -0.002 A 
ATOM     34  CA  PHE A 106      11.158  -3.179  45.107  1.00 51.18     0.191 C 
ATOM     35  CB  PHE A 106       9.636  -3.197  45.400  1.00 55.17     0.060 C 
ATOM     36  CG  PHE A 106       9.108  -3.087  46.813  1.00 59.28    -0.020 A 
ATOM     37  CD1 PHE A 106       9.550  -3.956  47.809  1.00 63.24    -0.004 A 
ATOM     38  CE1 PHE A 106       9.091  -3.836  49.122  1.00 66.24    -0.000 A 
ATOM     39  CZ  PHE A 106       8.257  -2.792  49.467  1.00 67.24    -0.000 A 
ATOM     40  CE2 PHE A 106       7.862  -1.879  48.512  1.00 68.40    -0.000 A 
ATOM     41  CD2 PHE A 106       8.304  -2.016  47.187  1.00 63.30    -0.004 A 
ATOM     42  CA  TYR A 109      15.002  -5.824  42.359  1.00 44.32     0.191 C 
ATOM     43  CB  TYR A 109      14.401  -6.700  43.474  1.00 43.91     0.060 C 
ATOM     44  CG  TYR A 109      13.984  -8.034  42.896  1.00 41.58    -0.020 A 
ATOM     45  CD1 TYR A 109      13.060  -8.842  43.555  1.00 42.10    -0.002 A 
ATOM     46  CE1 TYR A 109      12.596 -10.028  42.984  1.00 39.95     0.027 A 
ATOM     47  CZ  TYR A 109      13.027 -10.401  41.723  1.00 44.86     0.131 A 
ATOM     48  CE2 TYR A 109      13.929  -9.604  41.038  1.00 40.45     0.027 A 
ATOM     49  OH  TYR A 109      12.582 -11.575  41.169  1.00 45.89    -0.190 OA
ATOM     50  CD2 TYR A 109      14.383  -8.417  41.616  1.00 41.38    -0.002 A 
ATOM     51  CA  MET A 152       7.849  -7.115  43.442  1.00 60.44     0.187 C 
ATOM     52  CB  MET A 152       8.864  -6.222  42.718  1.00 62.10     0.046 C 
ATOM     53  CG  MET A 152      10.049  -5.850  43.567  1.00 64.63     0.060 C 
ATOM     54  SD  MET A 152      10.264  -6.823  45.075  1.00 66.98    -0.139 SA
ATOM     55  CE  MET A 152      11.897  -6.276  45.502  1.00 63.83     0.069 C 
ATOM     56  CA  LEU A 155       6.206  -8.638  48.212  1.00 59.11     0.186 C 
ATOM     57  CB  LEU A 155       7.625  -9.014  47.738  1.00 57.66     0.034 C 
ATOM     58  CG  LEU A 155       8.825  -8.213  48.228  1.00 61.82     0.002 C 
ATOM     59  CD2 LEU A 155       9.128  -7.034  47.313  1.00 63.41     0.000 C 
ATOM     60  CD1 LEU A 155      10.031  -9.107  48.302  1.00 60.03     0.000 C 
ATOM     61  CA  SER A 156       6.509  -4.864  48.930  1.00 56.90     0.219 C 
ATOM     62  CB  SER A 156       6.789  -3.832  47.837  1.00 60.21     0.216 C 
ATOM     63  OG  SER A 156       6.044  -4.028  46.643  1.00 67.39    -0.218 OA
ATOM     64  CA  ASN A 159       6.123  -4.191  54.295  1.00 52.94     0.196 C 
ATOM     65  CB  ASN A 159       7.426  -4.124  53.463  1.00 50.55     0.126 C 
ATOM     66  CG  ASN A 159       8.348  -2.961  53.748  1.00 57.65     0.276 C 
ATOM     67  OD1 ASN A 159       9.187  -2.615  52.930  1.00 61.23    -0.269 OA
ATOM     68  ND2 ASN A 159       8.186  -2.281  54.872  1.00 42.85    -0.107 N 
ATOM     69  CA  THR A 163       5.150  -0.592  59.487  1.00 57.53     0.216 C 
ATOM     70  CB  THR A 163       6.083   0.047  58.432  1.00 61.43     0.184 C 
ATOM     71  OG1 THR A 163       6.238   1.429  58.720  1.00 59.66    -0.221 OA
ATOM     72  CG2 THR A 163       5.568  -0.111  57.009  1.00 57.38     0.038 C 
ATOM     73  CA  LYS A 173      15.330   6.284  63.552  1.00 57.57     0.186 C 
ATOM     74  CB  LYS A 173      16.293   7.171  62.738  1.00 59.52     0.034 C 
ATOM     75  CG  LYS A 173      17.445   6.442  62.060  1.00 65.83     0.005 C 
ATOM     76  CD  LYS A 173      17.404   6.636  60.542  1.00 71.51     0.041 C 
ATOM     77  CE  LYS A 173      18.509   5.933  59.785  1.00 69.08     0.338 C 
ATOM     78  NZ  LYS A 173      18.912   6.673  58.560  1.00 69.29     0.618 N 
ATOM     79  CA  LYS A 174      15.508   2.484  62.776  1.00 51.48     0.186 C 
ATOM     80  CB  LYS A 174      16.296   1.384  63.512  1.00 52.43     0.034 C 
ATOM     81  CG  LYS A 174      17.122   0.436  62.684  1.00 57.02     0.005 C 
ATOM     82  CD  LYS A 174      16.413   0.107  61.371  1.00 61.29     0.041 C 
ATOM     83  CE  LYS A 174      17.195   0.506  60.144  1.00 63.07     0.338 C 
ATOM     84  NZ  LYS A 174      17.448   1.968  60.107  1.00 64.24     0.618 N 
ATOM     85  CA  CYS A 175      12.531   1.156  60.693  1.00 52.05     0.198 C 
ATOM     86  CB  CYS A 175      12.594   0.885  59.188  1.00 52.97     0.103 C 
ATOM     87  SG  CYS A 175      11.139   0.044  58.507  1.00 58.19    -0.080 SA
ATOM     88  CA  SER A 176      12.543  -2.161  62.656  1.00 47.09     0.219 C 
ATOM     89  CB  SER A 176      13.797  -2.935  63.058  1.00 49.42     0.216 C 
ATOM     90  OG  SER A 176      13.488  -4.175  63.674  1.00 57.35    -0.218 OA
ATOM     91  CA  LYS A 179       7.152  -2.688  62.727  1.00 48.92     0.186 C 
ATOM     92  CB  LYS A 179       8.163  -3.565  61.966  1.00 50.09     0.034 C 
ATOM     93  CG  LYS A 179       7.483  -4.686  61.197  1.00 55.91     0.005 C 
ATOM     94  CD  LYS A 179       6.457  -4.178  60.234  1.00 55.19     0.041 C 
ATOM     95  CE  LYS A 179       6.993  -4.285  58.836  1.00 53.09     0.338 C 
ATOM     96  NZ  LYS A 179       6.016  -4.902  57.903  1.00 49.98     0.618 N 
ATOM     97  CA  HIS A 187      10.766  -8.273  56.477  1.00 45.14     0.192 C 
ATOM     98  CB  HIS A 187      11.101  -7.312  57.639  1.00 44.58     0.082 C 
ATOM     99  CG  HIS A 187      10.899  -5.863  57.311  1.00 46.33     0.082 A 
ATOM    100  ND1 HIS A 187      11.239  -4.867  58.207  1.00 47.66    -0.227 NA
ATOM    101  CE1 HIS A 187      10.934  -3.729  57.610  1.00 45.53     0.199 A 
ATOM    102  NE2 HIS A 187      10.417  -3.935  56.402  1.00 45.13    -0.221 NA
ATOM    103  CD2 HIS A 187      10.391  -5.291  56.197  1.00 46.10     0.116 A 
ATOM    104  CA  VAL A 190      11.268 -10.574  51.763  1.00 49.37     0.186 C 
ATOM    105  CB  VAL A 190      10.556  -9.205  51.945  1.00 53.61     0.032 C 
ATOM    106  CG1 VAL A 190       9.260  -9.334  52.717  1.00 53.25     0.003 C 
ATOM    107  CG2 VAL A 190      11.472  -8.217  52.640  1.00 54.78     0.003 C 
ATOM    108  CA  ASN A 191      15.033 -10.052  52.403  1.00 41.57     0.196 C 
ATOM    109  CB  ASN A 191      15.643  -9.498  53.680  1.00 36.18     0.126 C 
ATOM    110  CG  ASN A 191      16.723 -10.412  54.210  1.00 51.01     0.276 C 
ATOM    111  OD1 ASN A 191      16.464 -11.388  54.919  1.00 48.94    -0.269 OA
ATOM    112  ND2 ASN A 191      17.948 -10.170  53.825  1.00 41.78    -0.107 N 
ATOM    113  CA  CYS A 194      15.509 -10.879  47.360  1.00 42.51     0.198 C 
ATOM    114  CB  CYS A 194      15.406  -9.501  47.992  1.00 42.24     0.103 C 
ATOM    115  SG  CYS A 194      16.625  -9.237  49.303  1.00 47.54    -0.080 SA
ATOM    116  CA  ARG A 256      22.497  -7.543  54.070  1.00 40.71     0.186 C 
ATOM    117  CB  ARG A 256      21.648  -7.737  52.800  1.00 38.64     0.036 C 
ATOM    118  CG  ARG A 256      22.411  -7.369  51.527  1.00 42.53     0.029 C 
ATOM    119  CD  ARG A 256      21.618  -7.681  50.258  1.00 44.33     0.145 C 
ATOM    120  NE  ARG A 256      20.358  -6.946  50.167  1.00 40.66    -0.083 NA
ATOM    121  CZ  ARG A 256      19.159  -7.489  50.346  1.00 52.38     0.782 C 
ATOM    122  NH1 ARG A 256      19.043  -8.778  50.644  1.00 37.43     0.063 N 
ATOM    123  NH2 ARG A 256      18.067  -6.747  50.245  1.00 45.57     0.063 N 
ATOM    124  CA  TYR A 259      22.125  -6.560  59.107  1.00 36.70     0.191 C 
ATOM    125  CB  TYR A 259      22.302  -5.448  58.050  1.00 36.37     0.060 C 
ATOM    126  CG  TYR A 259      21.403  -5.659  56.849  1.00 37.29    -0.020 A 
ATOM    127  CD2 TYR A 259      20.300  -6.506  56.917  1.00 37.84    -0.002 A 
ATOM    128  CE2 TYR A 259      19.434  -6.657  55.832  1.00 39.35     0.027 A 
ATOM    129  CZ  TYR A 259      19.652  -5.926  54.672  1.00 44.59     0.131 A 
ATOM    130  OH  TYR A 259      18.827  -6.037  53.584  1.00 41.50    -0.190 OA
ATOM    131  CE1 TYR A 259      20.709  -5.038  54.604  1.00 38.92     0.027 A 
ATOM    132  CD1 TYR A 259      21.571  -4.903  55.690  1.00 39.21    -0.002 A 
ATOM    133  CA  GLN A 263      16.853  -5.928  62.804  1.00 41.02     0.187 C 
ATOM    134  CB  GLN A 263      16.534  -5.555  61.339  1.00 41.50     0.044 C 
ATOM    135  CG  GLN A 263      15.485  -6.416  60.640  1.00 37.86     0.094 C 
ATOM    136  CD  GLN A 263      14.102  -5.807  60.773  1.00 48.33     0.274 C 
ATOM    137  OE1 GLN A 263      13.158  -6.438  61.267  1.00 42.79    -0.269 OA
ATOM    138  NE2 GLN A 263      13.934  -4.573  60.315  1.00 33.55    -0.107 N 
ATOM    139  CA  PHE A 277      24.046  -0.281  59.829  1.00 37.48     0.191 C 
ATOM    140  CB  PHE A 277      23.381   0.613  60.894  1.00 38.98     0.060 C 
ATOM    141  CG  PHE A 277      22.273  -0.082  61.657  1.00 40.06    -0.020 A 
ATOM    142  CD1 PHE A 277      22.558  -1.097  62.565  1.00 41.47    -0.004 A 
ATOM    143  CE1 PHE A 277      21.536  -1.742  63.262  1.00 41.97    -0.000 A 
ATOM    144  CZ  PHE A 277      20.225  -1.377  63.049  1.00 41.82    -0.000 A 
ATOM    145  CE2 PHE A 277      19.919  -0.371  62.160  1.00 44.30    -0.000 A 
ATOM    146  CD2 PHE A 277      20.940   0.271  61.458  1.00 41.93    -0.004 A 
ATOM    147  CA  LYS A 280      24.627  -1.514  54.783  1.00 38.25     0.186 C 
ATOM    148  CB  LYS A 280      23.432  -2.191  55.492  1.00 39.37     0.034 C 
ATOM    149  CG  LYS A 280      23.689  -3.559  56.091  1.00 48.63     0.005 C 
ATOM    150  CD  LYS A 280      24.863  -3.571  57.064  1.00 43.59     0.041 C 
ATOM    151  CE  LYS A 280      25.741  -4.746  56.718  1.00 39.84     0.338 C 
ATOM    152  NZ  LYS A 280      25.938  -5.674  57.846  1.00 34.79     0.618 N 
ENDMDL
REMARK VINA RESULT:       0.1      2.732      3.994
REMARK  14 active torsions:
REMARK  status: ('A' for Active; 'I' for Inactive)
REMARK    1  A    between atoms: C_3  and  C_21 
REMARK    2  A    between atoms: C_3  and  O_17 
REMARK    3  A    between atoms: C_8  and  N_27 
REMARK    4  A    between atoms: O_12  and  C_20 
REMARK    5  A    between atoms: O_13  and  C_22 
REMARK    6  A    between atoms: O_14  and  P_32 
REMARK    7  A    between atoms: O_15  and  P_33 
REMARK    8  A    between atoms: O_16  and  P_33 
REMARK    9  A    between atoms: O_17  and  P_31 
REMARK   10  A    between atoms: O_18  and  P_31 
REMARK   11  A    between atoms: O_18  and  P_32 
REMARK   12  A    between atoms: C_19  and  N_36 
REMARK   13  A    between atoms: S_37  and  P_31 
REMARK   14  A    between atoms: P_33  and  P_32 
REMARK  4 active torsions:
REMARK  status: ('A' for Active; 'I' for Inactive)
REMARK    1  A    between atoms: CA   and  CB  
REMARK    2  A    between atoms: CB   and  CG  
REMARK    3  A    between atoms: CG   and  CD  
REMARK    4  A    between atoms: CD   and  NE  
REMARK       I    between atoms: NE   and  CZ  
REMARK  2 active torsions:
REMARK  status: ('A' for Active; 'I' for Inactive)
REMARK    5  A    between atoms: CA   and  CB  
REMARK    6  A    between atoms: CB   and  SG  
REMARK  3 active torsions:
REMARK  status: ('A' for Active; 'I' for Inactive)
REMARK    7  A    between atoms: CA   and  CB  
REMARK    8  A    between atoms: CB   and  CG  
REMARK    9  A    between atoms: CG   and  CD  
REMARK  1 active torsions:
REMARK  status: ('A' for Active; 'I' for Inactive)
REMARK   10  A    between atoms: CA   and  CB  
REMARK  1 active torsions:
REMARK  status: ('A' for Active; 'I' for Inactive)
REMARK   11  A    between atoms: CA   and  CB  
REMARK  2 active torsions:
REMARK  status: ('A' for Active; 'I' for Inactive)
REMARK   12  A    between atoms: CA   and  CB  
REMARK   13  A    between atoms: CB   and  CG  
REMARK  2 active torsions:
REMARK  status: ('A' for Active; 'I' for Inactive)
REMARK   14  A    between atoms: CA   and  CB  
REMARK   15  A    between atoms: CB   and  CG  
REMARK  2 active torsions:
REMARK  status: ('A' for Active; 'I' for Inactive)
REMARK   16  A    between atoms: CA   and  CB  
REMARK   17  A    between atoms: CB   and  CG  
REMARK  3 active torsions:
REMARK  status: ('A' for Active; 'I' for Inactive)
REMARK   18  A    between atoms: CA   and  CB  
REMARK   19  A    between atoms: CB   and  CG  
REMARK   20  A    between atoms: CG   and  SD  
REMARK  2 active torsions:
REMARK  status: ('A' for Active; 'I' for Inactive)
REMARK   21  A    between atoms: CA   and  CB  
REMARK   22  A    between atoms: CB   and  CG  
REMARK  1 active torsions:
REMARK  status: ('A' for Active; 'I' for Inactive)
REMARK   23  A    between atoms: CA   and  CB  
REMARK  2 active torsions:
REMARK  status: ('A' for Active; 'I' for Inactive)
REMARK   24  A    between atoms: CA   and  CB  
REMARK   25  A    between atoms: CB   and  CG  
REMARK  1 active torsions:
REMARK  status: ('A' for Active; 'I' for Inactive)
REMARK   26  A    between atoms: CA   and  CB  
REMARK  4 active torsions:
REMARK  status: ('A' for Active; 'I' for Inactive)
REMARK   27  A    between atoms: CA   and  CB  
REMARK   28  A    between atoms: CB   and  CG  
REMARK   29  A    between atoms: CG   and  CD  
REMARK   30  A    between atoms: CD   and  CE  
REMARK  4 active torsions:
REMARK  status: ('A' for Active; 'I' for Inactive)
REMARK   31  A    between atoms: CA   and  CB  
REMARK   32  A    between atoms: CB   and  CG  
REMARK   33  A    between atoms: CG   and  CD  
REMARK   34  A    between atoms: CD   and  CE  
REMARK  2 active torsions:
REMARK  status: ('A' for Active; 'I' for Inactive)
REMARK   35  A    between atoms: CA   and  CB  
REMARK   36  A    between atoms: CB   and  SG  
REMARK  1 active torsions:
REMARK  status: ('A' for Active; 'I' for Inactive)
REMARK   37  A    between atoms: CA   and  CB  
REMARK  4 active torsions:
REMARK  status: ('A' for Active; 'I' for Inactive)
REMARK   38  A    between atoms: CA   and  CB  
REMARK   39  A    between atoms: CB   and  CG  
REMARK   40  A    between atoms: CG   and  CD  
REMARK   41  A    between atoms: CD   and  CE  
REMARK  2 active torsions:
REMARK  status: ('A' for Active; 'I' for Inactive)
REMARK   42  A    between atoms: CA   and  CB  
REMARK   43  A    between atoms: CB   and  CG  
REMARK  1 active torsions:
REMARK  status: ('A' for Active; 'I' for Inactive)
REMARK   44  A    between atoms: CA   and  CB  
REMARK  2 active torsions:
REMARK  status: ('A' for Active; 'I' for Inactive)
REMARK   45  A    between atoms: CA   and  CB  
REMARK   46  A    between atoms: CB   and  CG  
REMARK  1 active torsions:
REMARK  status: ('A' for Active; 'I' for Inactive)
REMARK   47  A    between atoms: CA   and  CB  
REMARK  4 active torsions:
REMARK  status: ('A' for Active; 'I' for Inactive)
REMARK   48  A    between atoms: CA   and  CB  
REMARK   49  A    between atoms: CB   and  CG  
REMARK   50  A    between atoms: CG   and  CD  
REMARK   51  A    between atoms: CD   and  NE  
REMARK       I    between atoms: NE   and  CZ  
REMARK  2 active torsions:
REMARK  status: ('A' for Active; 'I' for Inactive)
REMARK   52  A    between atoms: CA   and  CB  
REMARK   53  A    between atoms: CB   and  CG  
REMARK  3 active torsions:
REMARK  status: ('A' for Active; 'I' for Inactive)
REMARK   54  A    between atoms: CA   and  CB  
REMARK   55  A    between atoms: CB   and  CG  
REMARK   56  A    between atoms: CG   and  CD  
REMARK  2 active torsions:
REMARK  status: ('A' for Active; 'I' for Inactive)
REMARK   57  A    between atoms: CA   and  CB  
REMARK   58  A    between atoms: CB   and  CG  
REMARK  4 active torsions:
REMARK  status: ('A' for Active; 'I' for Inactive)
REMARK   59  A    between atoms: CA   and  CB  
REMARK   60  A    between atoms: CB   and  CG  
REMARK   61  A    between atoms: CG   and  CD  
REMARK   62  A    between atoms: CD   and  CE  
REMARK viewdock state: D
ATOM      1  C   LIG d 111      15.912   5.336  54.279  0.00  0.00     0.434 A 
ATOM      2  C   LIG d 111      16.960   3.027  50.725  0.00  0.00     0.230 A 
ATOM      3  C   LIG d 111      15.749   5.007  50.773  0.00  0.00     0.152 A 
ATOM      4  N   LIG d 111      17.198   2.928  52.053  0.00  0.00    -0.173 NA
ATOM      5  N   LIG d 111      15.469   5.861  53.155  0.00  0.00    -0.182 NA
ATOM      6  N   LIG d 111      16.278   3.985  50.062  0.00  0.00    -0.218 NA
ATOM      7  C   LIG d 111      16.630   3.955  52.712  0.00  0.00     0.339 A 
ATOM      8  C   LIG d 111      15.908   5.005  52.169  0.00  0.00     0.201 A 
ATOM      9  N   LIG d 111      16.643   4.197  54.061  0.00  0.00    -0.132 N 
ATOM     10  C   LIG d 111      17.268   3.352  55.063  0.00  0.00     0.443 C 
ATOM     11  O   LIG d 111      16.353   2.299  55.433  0.00  0.00    -0.309 OA
ATOM     12  C   LIG d 111      16.370   2.160  56.874  0.00  0.00     0.182 C 
ATOM     13  C   LIG d 111      17.563   2.963  57.374  0.00  0.00     0.183 C 
ATOM     14  C   LIG d 111      17.624   4.090  56.360  0.00  0.00     0.244 C 
ATOM     15  C   LIG d 111      16.413   0.679  57.237  0.00  0.00     0.203 C 
ATOM     16  O   LIG d 111      15.121   0.112  57.023  0.00  0.00    -0.321 OA
ATOM     17  P   LIG d 111      14.841  -0.741  55.664  0.00  0.00     0.234 P 
ATOM     18  S   LIG d 111      15.169   0.308  54.060  0.00  0.00     0.003 SA
ATOM     19  O   LIG d 111      13.256  -0.951  55.890  0.00  0.00    -0.238 OA
ATOM     20  P   LIG d 111      12.187  -1.225  54.725  0.00  0.00     0.445 P 
ATOM     21  O   LIG d 111      10.785  -1.090  55.260  0.00  0.00    -0.245 OA
ATOM     22  O   LIG d 111      12.465   0.071  53.787  0.00  0.00    -0.316 OA
ATOM     23  H   LIG d 111      13.196   0.613  54.141  0.00  0.00     0.220 HD
ATOM     24  P   LIG d 111      12.547  -3.271  53.557  0.00  0.00     0.438 P 
ATOM     25  O   LIG d 111      13.985  -3.700  53.583  0.00  0.00    -0.246 OA
ATOM     26  O   LIG d 111      12.018  -3.242  52.032  0.00  0.00    -0.316 OA
ATOM     27  H   LIG d 111      12.576  -2.647  51.493  0.00  0.00     0.220 HD
ATOM     28  O   LIG d 111      11.589  -4.467  54.081  0.00  0.00    -0.316 OA
ATOM     29  H   LIG d 111      11.917  -5.361  53.873  0.00  0.00     0.220 HD
ATOM     30  S   LIG d  11      15.778  -2.598  55.958  0.00  0.00    -0.091 SA
ATOM     31  H   LIG d  11      17.021  -2.165  55.711  0.00  0.00     0.111 HD
ATOM     32  O   LIG d 111      18.775   2.205  57.317  0.00  0.00    -0.386 OA
ATOM     33  H   LIG d 111      18.610   1.415  57.876  0.00  0.00     0.210 HD
ATOM     34  O   LIG d 111      18.924   4.679  56.371  0.00  0.00    -0.380 OA
ATOM     35  H   LIG d 111      19.448   4.179  57.037  0.00  0.00     0.210 HD
ATOM     36  N   LIG d 111      15.054   5.994  50.087  0.00  0.00    -0.341 NA
ATOM     37  H   LIG d 111      15.568   6.364  49.294  0.00  0.00     0.144 HD
ATOM     38  H   LIG d 111      14.625   6.662  50.716  0.00  0.00     0.144 HD
ATOM      1  CA  ARG A  93      11.357   9.429  58.493  1.00 59.89     0.186 C 
ATOM      2  CB  ARG A  93      12.236   9.564  59.757  1.00 58.23     0.036 C 
ATOM      3  CG  ARG A  93      11.596   9.092  61.076  1.00 60.51     0.029 C 
ATOM      4  CD  ARG A  93      11.172   7.625  61.092  1.00 61.21     0.145 C 
ATOM      5  NE  ARG A  93      11.264   7.061  62.441  1.00 60.36    -0.083 NA
ATOM      6  CZ  ARG A  93      11.655   5.821  62.728  1.00 66.21     0.782 C 
ATOM      7  NH2 ARG A  93      11.703   5.412  63.987  1.00 48.93     0.063 N 
ATOM      8  NH1 ARG A  93      11.992   4.979  61.757  1.00 52.54     0.063 N 
ATOM      9  CA  CYS A  97      10.408   3.635  56.475  1.00 55.45     0.198 C 
ATOM     10  CB  CYS A  97      10.309   3.703  57.996  1.00 56.61     0.103 C 
ATOM     11  SG  CYS A  97       8.748   3.083  58.670  1.00 59.92    -0.080 SA
ATOM     12  CA  GLN A  98       6.821   2.814  55.435  1.00 57.21     0.187 C 
ATOM     13  CB  GLN A  98       5.702   3.596  56.134  1.00 60.72     0.044 C 
ATOM     14  CG  GLN A  98       5.950   5.069  56.406  1.00 78.15     0.094 C 
ATOM     15  CD  GLN A  98       4.870   5.939  55.811  1.00 97.60     0.274 C 
ATOM     16  OE1 GLN A  98       4.322   6.847  56.453  1.00 90.91    -0.269 OA
ATOM     17  NE2 GLN A  98       4.536   5.672  54.560  1.00 94.53    -0.107 N 
ATOM     18  CA  SER A 101      12.406   3.303  51.001  1.00 47.65     0.219 C 
ATOM     19  CB  SER A 101      13.190   3.322  52.316  1.00 49.57     0.216 C 
ATOM     20  OG  SER A 101      14.175   2.309  52.437  1.00 54.41    -0.218 OA
ATOM     21  CA  VAL A 102      10.122   0.251  50.319  1.00 45.51     0.186 C 
ATOM     22  CB  VAL A 102       8.740  -0.096  50.947  1.00 49.19     0.032 C 
ATOM     23  CG1 VAL A 102       8.569   0.579  52.306  1.00 48.60     0.003 C 
ATOM     24  CG2 VAL A 102       7.595   0.299  50.016  1.00 48.10     0.003 C 
ATOM     25  CA  TYR A 105      14.000  -1.737  47.254  1.00 43.40     0.191 C 
ATOM     26  CB  TYR A 105      13.781  -2.368  48.630  1.00 43.23     0.060 C 
ATOM     27  CG  TYR A 105      13.388  -3.830  48.605  1.00 42.60    -0.020 A 
ATOM     28  CD2 TYR A 105      12.063  -4.211  48.416  1.00 43.44    -0.002 A 
ATOM     29  CE2 TYR A 105      11.701  -5.552  48.329  1.00 43.57     0.027 A 
ATOM     30  CZ  TYR A 105      12.672  -6.536  48.410  1.00 47.42     0.131 A 
ATOM     31  OH  TYR A 105      12.300  -7.855  48.307  1.00 47.92    -0.190 OA
ATOM     32  CE1 TYR A 105      13.998  -6.184  48.597  1.00 40.45     0.027 A 
ATOM     33  CD1 TYR A 105      14.352  -4.835  48.671  1.00 42.63    -0.002 A 
ATOM     34  CA  PHE A 106      11.158  -3.179  45.107  1.00 51.18     0.191 C 
ATOM     35  CB  PHE A 106       9.636  -3.197  45.400  1.00 55.17     0.060 C 
ATOM     36  CG  PHE A 106       9.108  -3.089  46.813  1.00 59.28    -0.020 A 
ATOM     37  CD1 PHE A 106       9.532  -3.976  47.802  1.00 63.24    -0.004 A 
ATOM     38  CE1 PHE A 106       9.073  -3.859  49.115  1.00 66.24    -0.000 A 
ATOM     39  CZ  PHE A 106       8.259  -2.803  49.469  1.00 67.24    -0.000 A 
ATOM     40  CE2 PHE A 106       7.883  -1.873  48.521  1.00 68.40    -0.000 A 
ATOM     41  CD2 PHE A 106       8.325  -2.007  47.196  1.00 63.30    -0.004 A 
ATOM     42  CA  TYR A 109      15.002  -5.824  42.359  1.00 44.32     0.191 C 
ATOM     43  CB  TYR A 109      14.401  -6.700  43.474  1.00 43.91     0.060 C 
ATOM     44  CG  TYR A 109      13.830  -7.963  42.869  1.00 41.58    -0.020 A 
ATOM     45  CD1 TYR A 109      14.163  -8.348  41.572  1.00 42.10    -0.002 A 
ATOM     46  CE1 TYR A 109      13.720  -9.560  41.038  1.00 39.95     0.027 A 
ATOM     47  CZ  TYR A 109      12.965 -10.420  41.817  1.00 44.86     0.131 A 
ATOM     48  CE2 TYR A 109      12.640 -10.071  43.116  1.00 40.45     0.027 A 
ATOM     49  OH  TYR A 109      12.518 -11.604  41.286  1.00 45.89    -0.190 OA
ATOM     50  CD2 TYR A 109      13.092  -8.858  43.641  1.00 41.38    -0.002 A 
ATOM     51  CA  MET A 152       7.849  -7.115  43.442  1.00 60.44     0.187 C 
ATOM     52  CB  MET A 152       8.864  -6.222  42.718  1.00 62.10     0.046 C 
ATOM     53  CG  MET A 152      10.029  -5.817  43.579  1.00 64.63     0.060 C 
ATOM     54  SD  MET A 152      10.322  -6.852  45.032  1.00 66.98    -0.139 SA
ATOM     55  CE  MET A 152      11.920  -6.223  45.477  1.00 63.83     0.069 C 
ATOM     56  CA  LEU A 155       6.206  -8.638  48.212  1.00 59.11     0.186 C 
ATOM     57  CB  LEU A 155       7.625  -9.014  47.738  1.00 57.66     0.034 C 
ATOM     58  CG  LEU A 155       8.823  -8.197  48.208  1.00 61.82     0.002 C 
ATOM     59  CD2 LEU A 155       9.140  -7.059  47.248  1.00 63.41     0.000 C 
ATOM     60  CD1 LEU A 155      10.024  -9.092  48.333  1.00 60.03     0.000 C 
ATOM     61  CA  SER A 156       6.509  -4.864  48.930  1.00 56.90     0.219 C 
ATOM     62  CB  SER A 156       6.789  -3.832  47.837  1.00 60.21     0.216 C 
ATOM     63  OG  SER A 156       6.148  -4.104  46.599  1.00 67.39    -0.218 OA
ATOM     64  CA  ASN A 159       6.123  -4.191  54.295  1.00 52.94     0.196 C 
ATOM     65  CB  ASN A 159       7.426  -4.124  53.463  1.00 50.55     0.126 C 
ATOM     66  CG  ASN A 159       8.336  -2.949  53.732  1.00 57.65     0.276 C 
ATOM     67  OD1 ASN A 159       9.369  -2.800  53.094  1.00 61.23    -0.269 OA
ATOM     68  ND2 ASN A 159       7.964  -2.045  54.624  1.00 42.85    -0.107 N 
ATOM     69  CA  THR A 163       5.150  -0.592  59.487  1.00 57.53     0.216 C 
ATOM     70  CB  THR A 163       6.083   0.047  58.432  1.00 61.43     0.184 C 
ATOM     71  OG1 THR A 163       5.450   0.007  57.161  1.00 59.66    -0.221 OA
ATOM     72  CG2 THR A 163       7.435  -0.644  58.338  1.00 57.38     0.038 C 
ATOM     73  CA  LYS A 173      15.330   6.284  63.552  1.00 57.57     0.186 C 
ATOM     74  CB  LYS A 173      16.293   7.171  62.738  1.00 59.52     0.034 C 
ATOM     75  CG  LYS A 173      16.482   6.772  61.281  1.00 65.83     0.005 C 
ATOM     76  CD  LYS A 173      17.747   5.930  61.099  1.00 71.51     0.041 C 
ATOM     77  CE  LYS A 173      18.489   6.176  59.803  1.00 69.08     0.338 C 
ATOM     78  NZ  LYS A 173      17.853   7.240  58.983  1.00 69.29     0.618 N 
ATOM     79  CA  LYS A 174      15.508   2.484  62.776  1.00 51.48     0.186 C 
ATOM     80  CB  LYS A 174      16.296   1.384  63.512  1.00 52.43     0.034 C 
ATOM     81  CG  LYS A 174      17.026   0.364  62.679  1.00 57.02     0.005 C 
ATOM     82  CD  LYS A 174      17.535   0.990  61.381  1.00 61.29     0.041 C 
ATOM     83  CE  LYS A 174      16.791   0.527  60.153  1.00 63.07     0.338 C 
ATOM     84  NZ  LYS A 174      15.843  -0.571  60.468  1.00 64.24     0.618 N 
ATOM     85  CA  CYS A 175      12.531   1.156  60.693  1.00 52.05     0.198 C 
ATOM     86  CB  CYS A 175      12.594   0.885  59.188  1.00 52.97     0.103 C 
ATOM     87  SG  CYS A 175      11.150   0.022  58.512  1.00 58.19    -0.080 SA
ATOM     88  CA  SER A 176      12.543  -2.161  62.656  1.00 47.09     0.219 C 
ATOM     89  CB  SER A 176      13.797  -2.935  63.058  1.00 49.42     0.216 C 
ATOM     90  OG  SER A 176      14.828  -2.826  62.090  1.00 57.35    -0.218 OA
ATOM     91  CA  LYS A 179       7.152  -2.688  62.727  1.00 48.92     0.186 C 
ATOM     92  CB  LYS A 179       8.163  -3.565  61.966  1.00 50.09     0.034 C 
ATOM     93  CG  LYS A 179       7.479  -4.640  61.137  1.00 55.91     0.005 C 
ATOM     94  CD  LYS A 179       6.625  -4.066  60.050  1.00 55.19     0.041 C 
ATOM     95  CE  LYS A 179       6.441  -5.093  58.971  1.00 53.09     0.338 C 
ATOM     96  NZ  LYS A 179       6.394  -4.484  57.616  1.00 49.98     0.618 N 
ATOM     97  CA  HIS A 187      10.766  -8.273  56.477  1.00 45.14     0.192 C 
ATOM     98  CB  HIS A 187      11.101  -7.312  57.639  1.00 44.58     0.082 C 
ATOM     99  CG  HIS A 187      10.817  -5.871  57.341  1.00 46.33     0.082 A 
ATOM    100  ND1 HIS A 187      10.059  -5.497  56.247  1.00 47.66    -0.227 NA
ATOM    101  CE1 HIS A 187      10.008  -4.177  56.281  1.00 45.53     0.199 A 
ATOM    102  NE2 HIS A 187      10.689  -3.689  57.315  1.00 45.13    -0.221 NA
ATOM    103  CD2 HIS A 187      11.208  -4.757  57.999  1.00 46.10     0.116 A 
ATOM    104  CA  VAL A 190      11.268 -10.574  51.763  1.00 49.37     0.186 C 
ATOM    105  CB  VAL A 190      10.556  -9.205  51.945  1.00 53.61     0.032 C 
ATOM    106  CG1 VAL A 190       9.256  -9.335  52.711  1.00 53.25     0.003 C 
ATOM    107  CG2 VAL A 190      11.469  -8.219  52.646  1.00 54.78     0.003 C 
ATOM    108  CA  ASN A 191      15.033 -10.052  52.403  1.00 41.57     0.196 C 
ATOM    109  CB  ASN A 191      15.643  -9.498  53.680  1.00 36.18     0.126 C 
ATOM    110  CG  ASN A 191      16.711 -10.420  54.219  1.00 51.01     0.276 C 
ATOM    111  OD1 ASN A 191      16.438 -11.407  54.907  1.00 48.94    -0.269 OA
ATOM    112  ND2 ASN A 191      17.944 -10.173  53.864  1.00 41.78    -0.107 N 
ATOM    113  CA  CYS A 194      15.509 -10.879  47.360  1.00 42.51     0.198 C 
ATOM    114  CB  CYS A 194      15.406  -9.501  47.992  1.00 42.24     0.103 C 
ATOM    115  SG  CYS A 194      16.749  -9.160  49.156  1.00 47.54    -0.080 SA
ATOM    116  CA  ARG A 256      22.497  -7.543  54.070  1.00 40.71     0.186 C 
ATOM    117  CB  ARG A 256      21.648  -7.737  52.800  1.00 38.64     0.036 C 
ATOM    118  CG  ARG A 256      22.000  -9.025  52.055  1.00 42.53     0.029 C 
ATOM    119  CD  ARG A 256      22.528 -10.115  52.988  1.00 44.33     0.145 C 
ATOM    120  NE  ARG A 256      23.660 -10.854  52.433  1.00 40.66    -0.083 NA
ATOM    121  CZ  ARG A 256      24.792 -11.091  53.087  1.00 52.38     0.782 C 
ATOM    122  NH1 ARG A 256      24.950 -10.663  54.334  1.00 37.43     0.063 N 
ATOM    123  NH2 ARG A 256      25.769 -11.771  52.507  1.00 45.57     0.063 N 
ATOM    124  CA  TYR A 259      22.125  -6.560  59.107  1.00 36.70     0.191 C 
ATOM    125  CB  TYR A 259      22.302  -5.448  58.050  1.00 36.37     0.060 C 
ATOM    126  CG  TYR A 259      21.320  -5.592  56.906  1.00 37.29    -0.020 A 
ATOM    127  CD2 TYR A 259      21.460  -4.844  55.740  1.00 37.84    -0.002 A 
ATOM    128  CE2 TYR A 259      20.593  -5.017  54.659  1.00 39.35     0.027 A 
ATOM    129  CZ  TYR A 259      19.590  -5.975  54.729  1.00 44.59     0.131 A 
ATOM    130  OH  TYR A 259      18.719  -6.183  53.692  1.00 41.50    -0.190 OA
ATOM    131  CE1 TYR A 259      19.469  -6.765  55.856  1.00 38.92     0.027 A 
ATOM    132  CD1 TYR A 259      20.334  -6.577  56.931  1.00 39.21    -0.002 A 
ATOM    133  CA  GLN A 263      16.853  -5.928  62.804  1.00 41.02     0.187 C 
ATOM    134  CB  GLN A 263      16.534  -5.555  61.339  1.00 41.50     0.044 C 
ATOM    135  CG  GLN A 263      15.482  -6.414  60.641  1.00 37.86     0.094 C 
ATOM    136  CD  GLN A 263      14.102  -5.798  60.771  1.00 48.33     0.274 C 
ATOM    137  OE1 GLN A 263      13.180  -6.386  61.353  1.00 42.79    -0.269 OA
ATOM    138  NE2 GLN A 263      13.910  -4.609  60.214  1.00 33.55    -0.107 N 
ATOM    139  CA  PHE A 277      24.046  -0.281  59.829  1.00 37.48     0.191 C 
ATOM    140  CB  PHE A 277      23.381   0.613  60.894  1.00 38.98     0.060 C 
ATOM    141  CG  PHE A 277      22.282  -0.086  61.666  1.00 40.06    -0.020 A 
ATOM    142  CD1 PHE A 277      20.946   0.263  61.483  1.00 41.47    -0.004 A 
ATOM    143  CE1 PHE A 277      19.936  -0.375  62.201  1.00 41.97    -0.000 A 
ATOM    144  CZ  PHE A 277      20.255  -1.361  63.108  1.00 41.82    -0.000 A 
ATOM    145  CE2 PHE A 277      21.569  -1.727  63.301  1.00 44.30    -0.000 A 
ATOM    146  CD2 PHE A 277      22.582  -1.085  62.588  1.00 41.93    -0.004 A 
ATOM    147  CA  LYS A 280      24.627  -1.514  54.783  1.00 38.25     0.186 C 
ATOM    148  CB  LYS A 280      23.432  -2.191  55.492  1.00 39.37     0.034 C 
ATOM    149  CG  LYS A 280      23.372  -3.704  55.418  1.00 48.63     0.005 C 
ATOM    150  CD  LYS A 280      24.522  -4.306  54.619  1.00 43.59     0.041 C 
ATOM    151  CE  LYS A 280      24.279  -4.012  53.161  1.00 39.84     0.338 C 
ATOM    152  NZ  LYS A 280      22.896  -4.298  52.735  1.00 34.79     0.618 N 
ENDMDL
REMARK VINA RESULT:       1.1      2.406      4.391
REMARK  14 active torsions:
REMARK  status: ('A' for Active; 'I' for Inactive)
REMARK    1  A    between atoms: C_3  and  C_21 
REMARK    2  A    between atoms: C_3  and  O_17 
REMARK    3  A    between atoms: C_8  and  N_27 
REMARK    4  A    between atoms: O_12  and  C_20 
REMARK    5  A    between atoms: O_13  and  C_22 
REMARK    6  A    between atoms: O_14  and  P_32 
REMARK    7  A    between atoms: O_15  and  P_33 
REMARK    8  A    between atoms: O_16  and  P_33 
REMARK    9  A    between atoms: O_17  and  P_31 
REMARK   10  A    between atoms: O_18  and  P_31 
REMARK   11  A    between atoms: O_18  and  P_32 
REMARK   12  A    between atoms: C_19  and  N_36 
REMARK   13  A    between atoms: S_37  and  P_31 
REMARK   14  A    between atoms: P_33  and  P_32 
REMARK  4 active torsions:
REMARK  status: ('A' for Active; 'I' for Inactive)
REMARK    1  A    between atoms: CA   and  CB  
REMARK    2  A    between atoms: CB   and  CG  
REMARK    3  A    between atoms: CG   and  CD  
REMARK    4  A    between atoms: CD   and  NE  
REMARK       I    between atoms: NE   and  CZ  
REMARK  2 active torsions:
REMARK  status: ('A' for Active; 'I' for Inactive)
REMARK    5  A    between atoms: CA   and  CB  
REMARK    6  A    between atoms: CB   and  SG  
REMARK  3 active torsions:
REMARK  status: ('A' for Active; 'I' for Inactive)
REMARK    7  A    between atoms: CA   and  CB  
REMARK    8  A    between atoms: CB   and  CG  
REMARK    9  A    between atoms: CG   and  CD  
REMARK  1 active torsions:
REMARK  status: ('A' for Active; 'I' for Inactive)
REMARK   10  A    between atoms: CA   and  CB  
REMARK  1 active torsions:
REMARK  status: ('A' for Active; 'I' for Inactive)
REMARK   11  A    between atoms: CA   and  CB  
REMARK  2 active torsions:
REMARK  status: ('A' for Active; 'I' for Inactive)
REMARK   12  A    between atoms: CA   and  CB  
REMARK   13  A    between atoms: CB   and  CG  
REMARK  2 active torsions:
REMARK  status: ('A' for Active; 'I' for Inactive)
REMARK   14  A    between atoms: CA   and  CB  
REMARK   15  A    between atoms: CB   and  CG  
REMARK  2 active torsions:
REMARK  status: ('A' for Active; 'I' for Inactive)
REMARK   16  A    between atoms: CA   and  CB  
REMARK   17  A    between atoms: CB   and  CG  
REMARK  3 active torsions:
REMARK  status: ('A' for Active; 'I' for Inactive)
REMARK   18  A    between atoms: CA   and  CB  
REMARK   19  A    between atoms: CB   and  CG  
REMARK   20  A    between atoms: CG   and  SD  
REMARK  2 active torsions:
REMARK  status: ('A' for Active; 'I' for Inactive)
REMARK   21  A    between atoms: CA   and  CB  
REMARK   22  A    between atoms: CB   and  CG  
REMARK  1 active torsions:
REMARK  status: ('A' for Active; 'I' for Inactive)
REMARK   23  A    between atoms: CA   and  CB  
REMARK  2 active torsions:
REMARK  status: ('A' for Active; 'I' for Inactive)
REMARK   24  A    between atoms: CA   and  CB  
REMARK   25  A    between atoms: CB   and  CG  
REMARK  1 active torsions:
REMARK  status: ('A' for Active; 'I' for Inactive)
REMARK   26  A    between atoms: CA   and  CB  
REMARK  4 active torsions:
REMARK  status: ('A' for Active; 'I' for Inactive)
REMARK   27  A    between atoms: CA   and  CB  
REMARK   28  A    between atoms: CB   and  CG  
REMARK   29  A    between atoms: CG   and  CD  
REMARK   30  A    between atoms: CD   and  CE  
REMARK  4 active torsions:
REMARK  status: ('A' for Active; 'I' for Inactive)
REMARK   31  A    between atoms: CA   and  CB  
REMARK   32  A    between atoms: CB   and  CG  
REMARK   33  A    between atoms: CG   and  CD  
REMARK   34  A    between atoms: CD   and  CE  
REMARK  2 active torsions:
REMARK  status: ('A' for Active; 'I' for Inactive)
REMARK   35  A    between atoms: CA   and  CB  
REMARK   36  A    between atoms: CB   and  SG  
REMARK  1 active torsions:
REMARK  status: ('A' for Active; 'I' for Inactive)
REMARK   37  A    between atoms: CA   and  CB  
REMARK  4 active torsions:
REMARK  status: ('A' for Active; 'I' for Inactive)
REMARK   38  A    between atoms: CA   and  CB  
REMARK   39  A    between atoms: CB   and  CG  
REMARK   40  A    between atoms: CG   and  CD  
REMARK   41  A    between atoms: CD   and  CE  
REMARK  2 active torsions:
REMARK  status: ('A' for Active; 'I' for Inactive)
REMARK   42  A    between atoms: CA   and  CB  
REMARK   43  A    between atoms: CB   and  CG  
REMARK  1 active torsions:
REMARK  status: ('A' for Active; 'I' for Inactive)
REMARK   44  A    between atoms: CA   and  CB  
REMARK  2 active torsions:
REMARK  status: ('A' for Active; 'I' for Inactive)
REMARK   45  A    between atoms: CA   and  CB  
REMARK   46  A    between atoms: CB   and  CG  
REMARK  1 active torsions:
REMARK  status: ('A' for Active; 'I' for Inactive)
REMARK   47  A    between atoms: CA   and  CB  
REMARK  4 active torsions:
REMARK  status: ('A' for Active; 'I' for Inactive)
REMARK   48  A    between atoms: CA   and  CB  
REMARK   49  A    between atoms: CB   and  CG  
REMARK   50  A    between atoms: CG   and  CD  
REMARK   51  A    between atoms: CD   and  NE  
REMARK       I    between atoms: NE   and  CZ  
REMARK  2 active torsions:
REMARK  status: ('A' for Active; 'I' for Inactive)
REMARK   52  A    between atoms: CA   and  CB  
REMARK   53  A    between atoms: CB   and  CG  
REMARK  3 active torsions:
REMARK  status: ('A' for Active; 'I' for Inactive)
REMARK   54  A    between atoms: CA   and  CB  
REMARK   55  A    between atoms: CB   and  CG  
REMARK   56  A    between atoms: CG   and  CD  
REMARK  2 active torsions:
REMARK  status: ('A' for Active; 'I' for Inactive)
REMARK   57  A    between atoms: CA   and  CB  
REMARK   58  A    between atoms: CB   and  CG  
REMARK  4 active torsions:
REMARK  status: ('A' for Active; 'I' for Inactive)
REMARK   59  A    between atoms: CA   and  CB  
REMARK   60  A    between atoms: CB   and  CG  
REMARK   61  A    between atoms: CG   and  CD  
REMARK   62  A    between atoms: CD   and  CE  
REMARK viewdock state: D
ATOM      1  C   LIG d 111      17.630   2.076  57.194  0.00  0.00     0.434 A 
ATOM      2  C   LIG d 111      16.964   5.778  54.979  0.00  0.00     0.230 A 
ATOM      3  C   LIG d 111      18.679   5.366  56.487  0.00  0.00     0.152 A 
ATOM      4  N   LIG d 111      16.373   4.563  55.040  0.00  0.00    -0.173 NA
ATOM      5  N   LIG d 111      18.518   3.014  57.449  0.00  0.00    -0.182 NA
ATOM      6  N   LIG d 111      18.054   6.217  55.643  0.00  0.00    -0.218 NA
ATOM      7  C   LIG d 111      17.021   3.766  55.911  0.00  0.00     0.339 A 
ATOM      8  C   LIG d 111      18.147   4.077  56.655  0.00  0.00     0.201 A 
ATOM      9  N   LIG d 111      16.719   2.474  56.250  0.00  0.00    -0.132 N 
ATOM     10  C   LIG d 111      15.597   1.707  55.737  0.00  0.00     0.443 C 
ATOM     11  O   LIG d 111      15.301   0.631  56.652  0.00  0.00    -0.309 OA
ATOM     12  C   LIG d 111      15.075  -0.576  55.886  0.00  0.00     0.182 C 
ATOM     13  C   LIG d 111      14.939  -0.147  54.431  0.00  0.00     0.183 C 
ATOM     14  C   LIG d 111      15.864   1.054  54.375  0.00  0.00     0.244 C 
ATOM     15  C   LIG d 111      13.856  -1.306  56.442  0.00  0.00     0.203 C 
ATOM     16  O   LIG d 111      13.374  -2.218  55.455  0.00  0.00    -0.321 OA
ATOM     17  P   LIG d 111      11.868  -2.030  54.865  0.00  0.00     0.234 P 
ATOM     18  S   LIG d 111      10.684  -1.165  56.143  0.00  0.00     0.003 SA
ATOM     19  O   LIG d 111      11.513  -3.600  54.736  0.00  0.00    -0.238 OA
ATOM     20  P   LIG d 111      12.071  -4.581  53.596  0.00  0.00     0.445 P 
ATOM     21  O   LIG d 111      11.612  -5.993  53.850  0.00  0.00    -0.245 OA
ATOM     22  O   LIG d 111      11.227  -4.030  52.322  0.00  0.00    -0.316 OA
ATOM     23  H   LIG d 111      10.422  -3.557  52.610  0.00  0.00     0.220 HD
ATOM     24  P   LIG d 111      14.424  -4.411  53.253  0.00  0.00     0.438 P 
ATOM     25  O   LIG d 111      14.832  -4.816  51.867  0.00  0.00    -0.246 OA
ATOM     26  O   LIG d 111      15.292  -5.235  54.336  0.00  0.00    -0.316 OA
ATOM     27  H   LIG d 111      15.928  -4.641  54.781  0.00  0.00     0.220 HD
ATOM     28  O   LIG d 111      15.001  -2.940  53.608  0.00  0.00    -0.316 OA
ATOM     29  H   LIG d 111      15.818  -2.707  53.129  0.00  0.00     0.220 HD
ATOM     30  S   LIG d  11      12.110  -1.270  52.922  0.00  0.00    -0.091 SA
ATOM     31  H   LIG d  11      13.310  -0.716  53.141  0.00  0.00     0.111 HD
ATOM     32  O   LIG d 111      13.605   0.263  54.121  0.00  0.00    -0.386 OA
ATOM     33  H   LIG d 111      13.037  -0.497  54.372  0.00  0.00     0.210 HD
ATOM     34  O   LIG d 111      15.531   1.868  53.250  0.00  0.00    -0.380 OA
ATOM     35  H   LIG d 111      15.690   2.798  53.527  0.00  0.00     0.210 HD
ATOM     36  N   LIG d 111      19.805   5.819  57.164  0.00  0.00    -0.341 NA
ATOM     37  H   LIG d 111      20.390   6.426  56.599  0.00  0.00     0.144 HD
ATOM     38  H   LIG d 111      20.263   5.076  57.677  0.00  0.00     0.144 HD
ATOM      1  CA  ARG A  93      11.357   9.429  58.493  1.00 59.89     0.186 C 
ATOM      2  CB  ARG A  93      12.236   9.564  59.757  1.00 58.23     0.036 C 
ATOM      3  CG  ARG A  93      11.487   9.857  61.071  1.00 60.51     0.029 C 
ATOM      4  CD  ARG A  93      10.550   8.745  61.534  1.00 61.21     0.145 C 
ATOM      5  NE  ARG A  93      11.269   7.479  61.698  1.00 60.36    -0.083 NA
ATOM      6  CZ  ARG A  93      10.985   6.549  62.607  1.00 66.21     0.782 C 
ATOM      7  NH2 ARG A  93      11.701   5.436  62.668  1.00 48.93     0.063 N 
ATOM      8  NH1 ARG A  93       9.989   6.729  63.467  1.00 52.54     0.063 N 
ATOM      9  CA  CYS A  97      10.408   3.635  56.475  1.00 55.45     0.198 C 
ATOM     10  CB  CYS A  97      10.309   3.703  57.996  1.00 56.61     0.103 C 
ATOM     11  SG  CYS A  97      10.989   5.216  58.720  1.00 59.92    -0.080 SA
ATOM     12  CA  GLN A  98       6.821   2.814  55.435  1.00 57.21     0.187 C 
ATOM     13  CB  GLN A  98       5.702   3.596  56.134  1.00 60.72     0.044 C 
ATOM     14  CG  GLN A  98       5.950   5.069  56.406  1.00 78.15     0.094 C 
ATOM     15  CD  GLN A  98       4.867   5.938  55.816  1.00 97.60     0.274 C 
ATOM     16  OE1 GLN A  98       4.314   6.839  56.465  1.00 90.91    -0.269 OA
ATOM     17  NE2 GLN A  98       4.537   5.680  54.562  1.00 94.53    -0.107 N 
ATOM     18  CA  SER A 101      12.406   3.303  51.001  1.00 47.65     0.219 C 
ATOM     19  CB  SER A 101      13.190   3.322  52.316  1.00 49.57     0.216 C 
ATOM     20  OG  SER A 101      14.367   4.113  52.296  1.00 54.41    -0.218 OA
ATOM     21  CA  VAL A 102      10.122   0.251  50.319  1.00 45.51     0.186 C 
ATOM     22  CB  VAL A 102       8.740  -0.096  50.947  1.00 49.19     0.032 C 
ATOM     23  CG1 VAL A 102       8.555   0.607  52.289  1.00 48.60     0.003 C 
ATOM     24  CG2 VAL A 102       7.596   0.267  50.002  1.00 48.10     0.003 C 
ATOM     25  CA  TYR A 105      14.000  -1.737  47.254  1.00 43.40     0.191 C 
ATOM     26  CB  TYR A 105      13.781  -2.368  48.630  1.00 43.23     0.060 C 
ATOM     27  CG  TYR A 105      13.395  -3.832  48.605  1.00 42.60    -0.020 A 
ATOM     28  CD2 TYR A 105      14.365  -4.828  48.669  1.00 43.44    -0.002 A 
ATOM     29  CE2 TYR A 105      14.017  -6.175  48.709  1.00 43.57     0.027 A 
ATOM     30  CZ  TYR A 105      12.682  -6.543  48.707  1.00 47.42     0.131 A 
ATOM     31  OH  TYR A 105      12.354  -7.877  48.763  1.00 47.92    -0.190 OA
ATOM     32  CE1 TYR A 105      11.698  -5.572  48.644  1.00 40.45     0.027 A 
ATOM     33  CD1 TYR A 105      12.057  -4.223  48.616  1.00 42.63    -0.002 A 
ATOM     34  CA  PHE A 106      11.158  -3.179  45.107  1.00 51.18     0.191 C 
ATOM     35  CB  PHE A 106       9.636  -3.197  45.400  1.00 55.17     0.060 C 
ATOM     36  CG  PHE A 106       9.108  -3.075  46.812  1.00 59.28    -0.020 A 
ATOM     37  CD1 PHE A 106       9.558  -3.927  47.818  1.00 63.24    -0.004 A 
ATOM     38  CE1 PHE A 106       9.099  -3.796  49.130  1.00 66.24    -0.000 A 
ATOM     39  CZ  PHE A 106       8.255  -2.756  49.463  1.00 67.24    -0.000 A 
ATOM     40  CE2 PHE A 106       7.851  -1.858  48.497  1.00 68.40    -0.000 A 
ATOM     41  CD2 PHE A 106       8.294  -2.007  47.174  1.00 63.30    -0.004 A 
ATOM     42  CA  TYR A 109      15.002  -5.824  42.359  1.00 44.32     0.191 C 
ATOM     43  CB  TYR A 109      14.401  -6.700  43.474  1.00 43.91     0.060 C 
ATOM     44  CG  TYR A 109      13.830  -7.963  42.869  1.00 41.58    -0.020 A 
ATOM     45  CD1 TYR A 109      14.164  -8.350  41.573  1.00 42.10    -0.002 A 
ATOM     46  CE1 TYR A 109      13.721  -9.561  41.039  1.00 39.95     0.027 A 
ATOM     47  CZ  TYR A 109      12.964 -10.420  41.817  1.00 44.86     0.131 A 
ATOM     48  CE2 TYR A 109      12.636 -10.068  43.116  1.00 40.45     0.027 A 
ATOM     49  OH  TYR A 109      12.515 -11.604  41.287  1.00 45.89    -0.190 OA
ATOM     50  CD2 TYR A 109      13.088  -8.856  43.640  1.00 41.38    -0.002 A 
ATOM     51  CA  MET A 152       7.849  -7.115  43.442  1.00 60.44     0.187 C 
ATOM     52  CB  MET A 152       8.864  -6.222  42.718  1.00 62.10     0.046 C 
ATOM     53  CG  MET A 152      10.102  -5.944  43.525  1.00 64.63     0.060 C 
ATOM     54  SD  MET A 152      10.226  -6.833  45.095  1.00 66.98    -0.139 SA
ATOM     55  CE  MET A 152      11.853  -6.303  45.562  1.00 63.83     0.069 C 
ATOM     56  CA  LEU A 155       6.206  -8.638  48.212  1.00 59.11     0.186 C 
ATOM     57  CB  LEU A 155       7.625  -9.014  47.738  1.00 57.66     0.034 C 
ATOM     58  CG  LEU A 155       8.827  -8.226  48.244  1.00 61.82     0.002 C 
ATOM     59  CD2 LEU A 155       9.160  -7.056  47.328  1.00 63.41     0.000 C 
ATOM     60  CD1 LEU A 155      10.020  -9.135  48.343  1.00 60.03     0.000 C 
ATOM     61  CA  SER A 156       6.509  -4.864  48.930  1.00 56.90     0.219 C 
ATOM     62  CB  SER A 156       6.789  -3.832  47.837  1.00 60.21     0.216 C 
ATOM     63  OG  SER A 156       6.107  -4.075  46.615  1.00 67.39    -0.218 OA
ATOM     64  CA  ASN A 159       6.123  -4.191  54.295  1.00 52.94     0.196 C 
ATOM     65  CB  ASN A 159       7.426  -4.124  53.463  1.00 50.55     0.126 C 
ATOM     66  CG  ASN A 159       8.332  -2.944  53.726  1.00 57.65     0.276 C 
ATOM     67  OD1 ASN A 159       8.327  -2.383  54.812  1.00 61.23    -0.269 OA
ATOM     68  ND2 ASN A 159       9.181  -2.570  52.782  1.00 42.85    -0.107 N 
ATOM     69  CA  THR A 163       5.150  -0.592  59.487  1.00 57.53     0.216 C 
ATOM     70  CB  THR A 163       6.083   0.047  58.432  1.00 61.43     0.184 C 
ATOM     71  OG1 THR A 163       5.458  -0.011  57.158  1.00 59.66    -0.221 OA
ATOM     72  CG2 THR A 163       7.442  -0.631  58.352  1.00 57.38     0.038 C 
ATOM     73  CA  LYS A 173      15.330   6.284  63.552  1.00 57.57     0.186 C 
ATOM     74  CB  LYS A 173      16.293   7.171  62.738  1.00 59.52     0.034 C 
ATOM     75  CG  LYS A 173      17.433   6.439  62.044  1.00 65.83     0.005 C 
ATOM     76  CD  LYS A 173      17.394   6.667  60.531  1.00 71.51     0.041 C 
ATOM     77  CE  LYS A 173      18.689   6.354  59.811  1.00 69.08     0.338 C 
ATOM     78  NZ  LYS A 173      19.281   7.557  59.170  1.00 69.29     0.618 N 
ATOM     79  CA  LYS A 174      15.508   2.484  62.776  1.00 51.48     0.186 C 
ATOM     80  CB  LYS A 174      16.296   1.384  63.512  1.00 52.43     0.034 C 
ATOM     81  CG  LYS A 174      17.008   0.352  62.679  1.00 57.02     0.005 C 
ATOM     82  CD  LYS A 174      16.761   0.594  61.191  1.00 61.29     0.041 C 
ATOM     83  CE  LYS A 174      17.910   1.275  60.489  1.00 63.07     0.338 C 
ATOM     84  NZ  LYS A 174      17.865   2.748  60.668  1.00 64.24     0.618 N 
ATOM     85  CA  CYS A 175      12.531   1.156  60.693  1.00 52.05     0.198 C 
ATOM     86  CB  CYS A 175      12.594   0.885  59.188  1.00 52.97     0.103 C 
ATOM     87  SG  CYS A 175      11.103   0.124  58.491  1.00 58.19    -0.080 SA
ATOM     88  CA  SER A 176      12.543  -2.161  62.656  1.00 47.09     0.219 C 
ATOM     89  CB  SER A 176      13.797  -2.935  63.058  1.00 49.42     0.216 C 
ATOM     90  OG  SER A 176      13.489  -4.199  63.624  1.00 57.35    -0.218 OA
ATOM     91  CA  LYS A 179       7.152  -2.688  62.727  1.00 48.92     0.186 C 
ATOM     92  CB  LYS A 179       8.163  -3.565  61.966  1.00 50.09     0.034 C 
ATOM     93  CG  LYS A 179       9.110  -4.294  62.905  1.00 55.91     0.005 C 
ATOM     94  CD  LYS A 179       8.526  -4.484  64.271  1.00 55.19     0.041 C 
ATOM     95  CE  LYS A 179       9.474  -3.932  65.296  1.00 53.09     0.338 C 
ATOM     96  NZ  LYS A 179      10.060  -4.995  66.152  1.00 49.98     0.618 N 
ATOM     97  CA  HIS A 187      10.766  -8.273  56.477  1.00 45.14     0.192 C 
ATOM     98  CB  HIS A 187      11.101  -7.312  57.639  1.00 44.58     0.082 C 
ATOM     99  CG  HIS A 187       9.973  -6.403  58.024  1.00 46.33     0.082 A 
ATOM    100  ND1 HIS A 187       9.002  -6.033  57.113  1.00 47.66    -0.227 NA
ATOM    101  CE1 HIS A 187       8.175  -5.240  57.772  1.00 45.53     0.199 A 
ATOM    102  NE2 HIS A 187       8.561  -5.076  59.035  1.00 45.13    -0.221 NA
ATOM    103  CD2 HIS A 187       9.704  -5.812  59.210  1.00 46.10     0.116 A 
ATOM    104  CA  VAL A 190      11.268 -10.574  51.763  1.00 49.37     0.186 C 
ATOM    105  CB  VAL A 190      10.556  -9.205  51.945  1.00 53.61     0.032 C 
ATOM    106  CG1 VAL A 190       9.271  -9.331  52.737  1.00 53.25     0.003 C 
ATOM    107  CG2 VAL A 190      11.480  -8.210  52.618  1.00 54.78     0.003 C 
ATOM    108  CA  ASN A 191      15.033 -10.052  52.403  1.00 41.57     0.196 C 
ATOM    109  CB  ASN A 191      15.643  -9.498  53.680  1.00 36.18     0.126 C 
ATOM    110  CG  ASN A 191      16.616 -10.479  54.290  1.00 51.01     0.276 C 
ATOM    111  OD1 ASN A 191      17.823 -10.450  54.035  1.00 48.94    -0.269 OA
ATOM    112  ND2 ASN A 191      16.138 -11.325  55.165  1.00 41.78    -0.107 N 
ATOM    113  CA  CYS A 194      15.509 -10.879  47.360  1.00 42.51     0.198 C 
ATOM    114  CB  CYS A 194      15.406  -9.501  47.992  1.00 42.24     0.103 C 
ATOM    115  SG  CYS A 194      16.673  -9.209  49.250  1.00 47.54    -0.080 SA
ATOM    116  CA  ARG A 256      22.497  -7.543  54.070  1.00 40.71     0.186 C 
ATOM    117  CB  ARG A 256      21.648  -7.737  52.800  1.00 38.64     0.036 C 
ATOM    118  CG  ARG A 256      20.686  -8.919  52.917  1.00 42.53     0.029 C 
ATOM    119  CD  ARG A 256      19.904  -9.168  51.627  1.00 44.33     0.145 C 
ATOM    120  NE  ARG A 256      18.763  -8.271  51.459  1.00 40.66    -0.083 NA
ATOM    121  CZ  ARG A 256      18.701  -7.300  50.554  1.00 52.38     0.782 C 
ATOM    122  NH1 ARG A 256      19.709  -7.099  49.714  1.00 37.43     0.063 N 
ATOM    123  NH2 ARG A 256      17.625  -6.533  50.471  1.00 45.57     0.063 N 
ATOM    124  CA  TYR A 259      22.125  -6.560  59.107  1.00 36.70     0.191 C 
ATOM    125  CB  TYR A 259      22.302  -5.448  58.050  1.00 36.37     0.060 C 
ATOM    126  CG  TYR A 259      21.391  -5.650  56.856  1.00 37.29    -0.020 A 
ATOM    127  CD2 TYR A 259      20.312  -6.528  56.917  1.00 37.84    -0.002 A 
ATOM    128  CE2 TYR A 259      19.434  -6.672  55.840  1.00 39.35     0.027 A 
ATOM    129  CZ  TYR A 259      19.616  -5.904  54.697  1.00 44.59     0.131 A 
ATOM    130  OH  TYR A 259      18.778  -6.008  53.619  1.00 41.50    -0.190 OA
ATOM    131  CE1 TYR A 259      20.648  -4.987  54.640  1.00 38.92     0.027 A 
ATOM    132  CD1 TYR A 259      21.523  -4.859  55.716  1.00 39.21    -0.002 A 
ATOM    133  CA  GLN A 263      16.853  -5.928  62.804  1.00 41.02     0.187 C 
ATOM    134  CB  GLN A 263      16.534  -5.555  61.339  1.00 41.50     0.044 C 
ATOM    135  CG  GLN A 263      15.471  -6.404  60.646  1.00 37.86     0.094 C 
ATOM    136  CD  GLN A 263      14.114  -5.730  60.700  1.00 48.33     0.274 C 
ATOM    137  OE1 GLN A 263      13.964  -4.543  60.378  1.00 42.79    -0.269 OA
ATOM    138  NE2 GLN A 263      13.089  -6.455  61.130  1.00 33.55    -0.107 N 
ATOM    139  CA  PHE A 277      24.046  -0.281  59.829  1.00 37.48     0.191 C 
ATOM    140  CB  PHE A 277      23.381   0.613  60.894  1.00 38.98     0.060 C 
ATOM    141  CG  PHE A 277      22.294  -0.091  61.679  1.00 40.06    -0.020 A 
ATOM    142  CD1 PHE A 277      20.954   0.241  61.500  1.00 41.47    -0.004 A 
ATOM    143  CE1 PHE A 277      19.954  -0.402  62.229  1.00 41.97    -0.000 A 
ATOM    144  CZ  PHE A 277      20.290  -1.376  63.142  1.00 41.82    -0.000 A 
ATOM    145  CE2 PHE A 277      21.609  -1.726  63.331  1.00 44.30    -0.000 A 
ATOM    146  CD2 PHE A 277      22.611  -1.079  62.607  1.00 41.93    -0.004 A 
ATOM    147  CA  LYS A 280      24.627  -1.514  54.783  1.00 38.25     0.186 C 
ATOM    148  CB  LYS A 280      23.432  -2.191  55.492  1.00 39.37     0.034 C 
ATOM    149  CG  LYS A 280      22.548  -3.072  54.632  1.00 48.63     0.005 C 
ATOM    150  CD  LYS A 280      23.338  -4.072  53.796  1.00 43.59     0.041 C 
ATOM    151  CE  LYS A 280      24.705  -3.490  53.545  1.00 39.84     0.338 C 
ATOM    152  NZ  LYS A 280      24.979  -3.248  52.116  1.00 34.79     0.618 N 
ENDMDL
REMARK VINA RESULT:       2.0      1.593      2.137
REMARK  14 active torsions:
REMARK  status: ('A' for Active; 'I' for Inactive)
REMARK    1  A    between atoms: C_3  and  C_21 
REMARK    2  A    between atoms: C_3  and  O_17 
REMARK    3  A    between atoms: C_8  and  N_27 
REMARK    4  A    between atoms: O_12  and  C_20 
REMARK    5  A    between atoms: O_13  and  C_22 
REMARK    6  A    between atoms: O_14  and  P_32 
REMARK    7  A    between atoms: O_15  and  P_33 
REMARK    8  A    between atoms: O_16  and  P_33 
REMARK    9  A    between atoms: O_17  and  P_31 
REMARK   10  A    between atoms: O_18  and  P_31 
REMARK   11  A    between atoms: O_18  and  P_32 
REMARK   12  A    between atoms: C_19  and  N_36 
REMARK   13  A    between atoms: S_37  and  P_31 
REMARK   14  A    between atoms: P_33  and  P_32 
REMARK  4 active torsions:
REMARK  status: ('A' for Active; 'I' for Inactive)
REMARK    1  A    between atoms: CA   and  CB  
REMARK    2  A    between atoms: CB   and  CG  
REMARK    3  A    between atoms: CG   and  CD  
REMARK    4  A    between atoms: CD   and  NE  
REMARK       I    between atoms: NE   and  CZ  
REMARK  2 active torsions:
REMARK  status: ('A' for Active; 'I' for Inactive)
REMARK    5  A    between atoms: CA   and  CB  
REMARK    6  A    between atoms: CB   and  SG  
REMARK  3 active torsions:
REMARK  status: ('A' for Active; 'I' for Inactive)
REMARK    7  A    between atoms: CA   and  CB  
REMARK    8  A    between atoms: CB   and  CG  
REMARK    9  A    between atoms: CG   and  CD  
REMARK  1 active torsions:
REMARK  status: ('A' for Active; 'I' for Inactive)
REMARK   10  A    between atoms: CA   and  CB  
REMARK  1 active torsions:
REMARK  status: ('A' for Active; 'I' for Inactive)
REMARK   11  A    between atoms: CA   and  CB  
REMARK  2 active torsions:
REMARK  status: ('A' for Active; 'I' for Inactive)
REMARK   12  A    between atoms: CA   and  CB  
REMARK   13  A    between atoms: CB   and  CG  
REMARK  2 active torsions:
REMARK  status: ('A' for Active; 'I' for Inactive)
REMARK   14  A    between atoms: CA   and  CB  
REMARK   15  A    between atoms: CB   and  CG  
REMARK  2 active torsions:
REMARK  status: ('A' for Active; 'I' for Inactive)
REMARK   16  A    between atoms: CA   and  CB  
REMARK   17  A    between atoms: CB   and  CG  
REMARK  3 active torsions:
REMARK  status: ('A' for Active; 'I' for Inactive)
REMARK   18  A    between atoms: CA   and  CB  
REMARK   19  A    between atoms: CB   and  CG  
REMARK   20  A    between atoms: CG   and  SD  
REMARK  2 active torsions:
REMARK  status: ('A' for Active; 'I' for Inactive)
REMARK   21  A    between atoms: CA   and  CB  
REMARK   22  A    between atoms: CB   and  CG  
REMARK  1 active torsions:
REMARK  status: ('A' for Active; 'I' for Inactive)
REMARK   23  A    between atoms: CA   and  CB  
REMARK  2 active torsions:
REMARK  status: ('A' for Active; 'I' for Inactive)
REMARK   24  A    between atoms: CA   and  CB  
REMARK   25  A    between atoms: CB   and  CG  
REMARK  1 active torsions:
REMARK  status: ('A' for Active; 'I' for Inactive)
REMARK   26  A    between atoms: CA   and  CB  
REMARK  4 active torsions:
REMARK  status: ('A' for Active; 'I' for Inactive)
REMARK   27  A    between atoms: CA   and  CB  
REMARK   28  A    between atoms: CB   and  CG  
REMARK   29  A    between atoms: CG   and  CD  
REMARK   30  A    between atoms: CD   and  CE  
REMARK  4 active torsions:
REMARK  status: ('A' for Active; 'I' for Inactive)
REMARK   31  A    between atoms: CA   and  CB  
REMARK   32  A    between atoms: CB   and  CG  
REMARK   33  A    between atoms: CG   and  CD  
REMARK   34  A    between atoms: CD   and  CE  
REMARK  2 active torsions:
REMARK  status: ('A' for Active; 'I' for Inactive)
REMARK   35  A    between atoms: CA   and  CB  
REMARK   36  A    between atoms: CB   and  SG  
REMARK  1 active torsions:
REMARK  status: ('A' for Active; 'I' for Inactive)
REMARK   37  A    between atoms: CA   and  CB  
REMARK  4 active torsions:
REMARK  status: ('A' for Active; 'I' for Inactive)
REMARK   38  A    between atoms: CA   and  CB  
REMARK   39  A    between atoms: CB   and  CG  
REMARK   40  A    between atoms: CG   and  CD  
REMARK   41  A    between atoms: CD   and  CE  
REMARK  2 active torsions:
REMARK  status: ('A' for Active; 'I' for Inactive)
REMARK   42  A    between atoms: CA   and  CB  
REMARK   43  A    between atoms: CB   and  CG  
REMARK  1 active torsions:
REMARK  status: ('A' for Active; 'I' for Inactive)
REMARK   44  A    between atoms: CA   and  CB  
REMARK  2 active torsions:
REMARK  status: ('A' for Active; 'I' for Inactive)
REMARK   45  A    between atoms: CA   and  CB  
REMARK   46  A    between atoms: CB   and  CG  
REMARK  1 active torsions:
REMARK  status: ('A' for Active; 'I' for Inactive)
REMARK   47  A    between atoms: CA   and  CB  
REMARK  4 active torsions:
REMARK  status: ('A' for Active; 'I' for Inactive)
REMARK   48  A    between atoms: CA   and  CB  
REMARK   49  A    between atoms: CB   and  CG  
REMARK   50  A    between atoms: CG   and  CD  
REMARK   51  A    between atoms: CD   and  NE  
REMARK       I    between atoms: NE   and  CZ  
REMARK  2 active torsions:
REMARK  status: ('A' for Active; 'I' for Inactive)
REMARK   52  A    between atoms: CA   and  CB  
REMARK   53  A    between atoms: CB   and  CG  
REMARK  3 active torsions:
REMARK  status: ('A' for Active; 'I' for Inactive)
REMARK   54  A    between atoms: CA   and  CB  
REMARK   55  A    between atoms: CB   and  CG  
REMARK   56  A    between atoms: CG   and  CD  
REMARK  2 active torsions:
REMARK  status: ('A' for Active; 'I' for Inactive)
REMARK   57  A    between atoms: CA   and  CB  
REMARK   58  A    between atoms: CB   and  CG  
REMARK  4 active torsions:
REMARK  status: ('A' for Active; 'I' for Inactive)
REMARK   59  A    between atoms: CA   and  CB  
REMARK   60  A    between atoms: CB   and  CG  
REMARK   61  A    between atoms: CG   and  CD  
REMARK   62  A    between atoms: CD   and  CE  
REMARK viewdock state: D
ATOM      1  C   LIG d 111      11.765  -0.876  53.969  0.00  0.00     0.434 A 
ATOM      2  C   LIG d 111      14.188  -4.474  53.476  0.00  0.00     0.230 A 
ATOM      3  C   LIG d 111      12.211  -3.983  52.364  0.00  0.00     0.152 A 
ATOM      4  N   LIG d 111      14.276  -3.335  54.200  0.00  0.00    -0.173 NA
ATOM      5  N   LIG d 111      11.276  -1.730  53.094  0.00  0.00    -0.182 NA
ATOM      6  N   LIG d 111      13.233  -4.838  52.594  0.00  0.00    -0.218 NA
ATOM      7  C   LIG d 111      13.224  -2.534  53.949  0.00  0.00     0.339 A 
ATOM      8  C   LIG d 111      12.177  -2.772  53.074  0.00  0.00     0.201 A 
ATOM      9  N   LIG d 111      12.956  -1.306  54.494  0.00  0.00    -0.132 N 
ATOM     10  C   LIG d 111      13.768  -0.630  55.492  0.00  0.00     0.443 C 
ATOM     11  O   LIG d 111      14.795   0.137  54.828  0.00  0.00    -0.309 OA
ATOM     12  C   LIG d 111      16.046  -0.069  55.525  0.00  0.00     0.182 C 
ATOM     13  C   LIG d 111      15.703  -0.756  56.840  0.00  0.00     0.183 C 
ATOM     14  C   LIG d 111      14.494  -1.584  56.449  0.00  0.00     0.244 C 
ATOM     15  C   LIG d 111      16.761   1.269  55.684  0.00  0.00     0.203 C 
ATOM     16  O   LIG d 111      16.613   1.715  57.032  0.00  0.00    -0.321 OA
ATOM     17  P   LIG d 111      17.943   1.970  57.937  0.00  0.00     0.234 P 
ATOM     18  S   LIG d 111      17.513   2.750  59.666  0.00  0.00     0.003 SA
ATOM     19  O   LIG d 111      18.626   3.070  56.972  0.00  0.00    -0.238 OA
ATOM     20  P   LIG d 111      17.929   4.432  56.489  0.00  0.00     0.445 P 
ATOM     21  O   LIG d 111      17.302   5.143  57.660  0.00  0.00    -0.245 OA
ATOM     22  O   LIG d 111      19.248   5.282  56.068  0.00  0.00    -0.316 OA
ATOM     23  H   LIG d 111      20.023   4.698  55.959  0.00  0.00     0.220 HD
ATOM     24  P   LIG d 111      16.428   4.143  54.659  0.00  0.00     0.438 P 
ATOM     25  O   LIG d 111      16.988   3.243  53.596  0.00  0.00    -0.246 OA
ATOM     26  O   LIG d 111      15.949   5.534  53.995  0.00  0.00    -0.316 OA
ATOM     27  H   LIG d 111      16.669   5.916  53.456  0.00  0.00     0.220 HD
ATOM     28  O   LIG d 111      14.966   3.627  55.127  0.00  0.00    -0.316 OA
ATOM     29  H   LIG d 111      14.721   3.893  56.033  0.00  0.00     0.220 HD
ATOM     30  S   LIG d  11      19.074   0.206  57.792  0.00  0.00    -0.091 SA
ATOM     31  H   LIG d  11      18.993   0.100  56.460  0.00  0.00     0.111 HD
ATOM     32  O   LIG d 111      15.330   0.186  57.850  0.00  0.00    -0.386 OA
ATOM     33  H   LIG d 111      15.957   0.934  57.747  0.00  0.00     0.210 HD
ATOM     34  O   LIG d 111      13.750  -1.933  57.617  0.00  0.00    -0.380 OA
ATOM     35  H   LIG d 111      12.811  -2.010  57.333  0.00  0.00     0.210 HD
ATOM     36  N   LIG d 111      11.233  -4.357  51.451  0.00  0.00    -0.341 NA
ATOM     37  H   LIG d 111      10.318  -3.978  51.671  0.00  0.00     0.144 HD
ATOM     38  H   LIG d 111      11.286  -5.342  51.222  0.00  0.00     0.144 HD
ATOM      1  CA  ARG A  93      11.357   9.429  58.493  1.00 59.89     0.186 C 
ATOM      2  CB  ARG A  93      12.236   9.564  59.757  1.00 58.23     0.036 C 
ATOM      3  CG  ARG A  93      11.566   9.174  61.088  1.00 60.51     0.029 C 
ATOM      4  CD  ARG A  93      11.356   7.675  61.283  1.00 61.21     0.145 C 
ATOM      5  NE  ARG A  93      10.472   7.406  62.421  1.00 60.36    -0.083 NA
ATOM      6  CZ  ARG A  93      10.678   6.474  63.347  1.00 66.21     0.782 C 
ATOM      7  NH2 ARG A  93       9.814   6.315  64.338  1.00 48.93     0.063 N 
ATOM      8  NH1 ARG A  93      11.747   5.687  63.285  1.00 52.54     0.063 N 
ATOM      9  CA  CYS A  97      10.408   3.635  56.475  1.00 55.45     0.198 C 
ATOM     10  CB  CYS A  97      10.309   3.703  57.996  1.00 56.61     0.103 C 
ATOM     11  SG  CYS A  97       8.745   3.091  58.669  1.00 59.92    -0.080 SA
ATOM     12  CA  GLN A  98       6.821   2.814  55.435  1.00 57.21     0.187 C 
ATOM     13  CB  GLN A  98       5.702   3.596  56.134  1.00 60.72     0.044 C 
ATOM     14  CG  GLN A  98       5.931   5.079  56.363  1.00 78.15     0.094 C 
ATOM     15  CD  GLN A  98       4.859   5.919  55.713  1.00 97.60     0.274 C 
ATOM     16  OE1 GLN A  98       4.489   5.732  54.544  1.00 90.91    -0.269 OA
ATOM     17  NE2 GLN A  98       4.336   6.873  56.464  1.00 94.53    -0.107 N 
ATOM     18  CA  SER A 101      12.406   3.303  51.001  1.00 47.65     0.219 C 
ATOM     19  CB  SER A 101      13.190   3.322  52.316  1.00 49.57     0.216 C 
ATOM     20  OG  SER A 101      14.402   4.057  52.276  1.00 54.41    -0.218 OA
ATOM     21  CA  VAL A 102      10.122   0.251  50.319  1.00 45.51     0.186 C 
ATOM     22  CB  VAL A 102       8.740  -0.096  50.947  1.00 49.19     0.032 C 
ATOM     23  CG1 VAL A 102       8.534   0.646  52.265  1.00 48.60     0.003 C 
ATOM     24  CG2 VAL A 102       7.599   0.221  49.982  1.00 48.10     0.003 C 
ATOM     25  CA  TYR A 105      14.000  -1.737  47.254  1.00 43.40     0.191 C 
ATOM     26  CB  TYR A 105      13.781  -2.368  48.630  1.00 43.23     0.060 C 
ATOM     27  CG  TYR A 105      13.450  -3.845  48.608  1.00 42.60    -0.020 A 
ATOM     28  CD2 TYR A 105      14.387  -4.793  49.008  1.00 43.44    -0.002 A 
ATOM     29  CE2 TYR A 105      14.073  -6.148  49.051  1.00 43.57     0.027 A 
ATOM     30  CZ  TYR A 105      12.800  -6.572  48.709  1.00 47.42     0.131 A 
ATOM     31  OH  TYR A 105      12.500  -7.913  48.771  1.00 47.92    -0.190 OA
ATOM     32  CE1 TYR A 105      11.849  -5.650  48.308  1.00 40.45     0.027 A 
ATOM     33  CD1 TYR A 105      12.171  -4.291  48.280  1.00 42.63    -0.002 A 
ATOM     34  CA  PHE A 106      11.158  -3.179  45.107  1.00 51.18     0.191 C 
ATOM     35  CB  PHE A 106       9.636  -3.197  45.400  1.00 55.17     0.060 C 
ATOM     36  CG  PHE A 106       9.109  -3.115  46.815  1.00 59.28    -0.020 A 
ATOM     37  CD1 PHE A 106       9.512  -4.036  47.780  1.00 63.24    -0.004 A 
ATOM     38  CE1 PHE A 106       9.054  -3.944  49.096  1.00 66.24    -0.000 A 
ATOM     39  CZ  PHE A 106       8.263  -2.879  49.477  1.00 67.24    -0.000 A 
ATOM     40  CE2 PHE A 106       7.909  -1.917  48.554  1.00 68.40    -0.000 A 
ATOM     41  CD2 PHE A 106       8.349  -2.025  47.226  1.00 63.30    -0.004 A 
ATOM     42  CA  TYR A 109      15.002  -5.824  42.359  1.00 44.32     0.191 C 
ATOM     43  CB  TYR A 109      14.401  -6.700  43.474  1.00 43.91     0.060 C 
ATOM     44  CG  TYR A 109      13.832  -7.964  42.869  1.00 41.58    -0.020 A 
ATOM     45  CD1 TYR A 109      14.164  -8.348  41.571  1.00 42.10    -0.002 A 
ATOM     46  CE1 TYR A 109      13.722  -9.560  41.038  1.00 39.95     0.027 A 
ATOM     47  CZ  TYR A 109      12.970 -10.422  41.817  1.00 44.86     0.131 A 
ATOM     48  CE2 TYR A 109      12.645 -10.074  43.117  1.00 40.45     0.027 A 
ATOM     49  OH  TYR A 109      12.524 -11.607  41.287  1.00 45.89    -0.190 OA
ATOM     50  CD2 TYR A 109      13.096  -8.860  43.642  1.00 41.38    -0.002 A 
ATOM     51  CA  MET A 152       7.849  -7.115  43.442  1.00 60.44     0.187 C 
ATOM     52  CB  MET A 152       8.864  -6.222  42.718  1.00 62.10     0.046 C 
ATOM     53  CG  MET A 152      10.033  -5.823  43.577  1.00 64.63     0.060 C 
ATOM     54  SD  MET A 152      10.282  -6.819  45.065  1.00 66.98    -0.139 SA
ATOM     55  CE  MET A 152      11.912  -6.253  45.481  1.00 63.83     0.069 C 
ATOM     56  CA  LEU A 155       6.206  -8.638  48.212  1.00 59.11     0.186 C 
ATOM     57  CB  LEU A 155       7.625  -9.014  47.738  1.00 57.66     0.034 C 
ATOM     58  CG  LEU A 155       8.818  -8.172  48.174  1.00 61.82     0.002 C 
ATOM     59  CD2 LEU A 155       9.150  -7.094  47.151  1.00 63.41     0.000 C 
ATOM     60  CD1 LEU A 155      10.016  -9.058  48.368  1.00 60.03     0.000 C 
ATOM     61  CA  SER A 156       6.509  -4.864  48.930  1.00 56.90     0.219 C 
ATOM     62  CB  SER A 156       6.789  -3.832  47.837  1.00 60.21     0.216 C 
ATOM     63  OG  SER A 156       6.163  -4.114  46.593  1.00 67.39    -0.218 OA
ATOM     64  CA  ASN A 159       6.123  -4.191  54.295  1.00 52.94     0.196 C 
ATOM     65  CB  ASN A 159       7.426  -4.124  53.463  1.00 50.55     0.126 C 
ATOM     66  CG  ASN A 159       8.518  -3.225  53.994  1.00 57.65     0.276 C 
ATOM     67  OD1 ASN A 159       9.591  -3.691  54.350  1.00 61.23    -0.269 OA
ATOM     68  ND2 ASN A 159       8.318  -1.917  54.005  1.00 42.85    -0.107 N 
ATOM     69  CA  THR A 163       5.150  -0.592  59.487  1.00 57.53     0.216 C 
ATOM     70  CB  THR A 163       6.083   0.047  58.432  1.00 61.43     0.184 C 
ATOM     71  OG1 THR A 163       5.447   0.012  57.162  1.00 59.66    -0.221 OA
ATOM     72  CG2 THR A 163       7.432  -0.648  58.333  1.00 57.38     0.038 C 
ATOM     73  CA  LYS A 173      15.330   6.284  63.552  1.00 57.57     0.186 C 
ATOM     74  CB  LYS A 173      16.293   7.171  62.738  1.00 59.52     0.034 C 
ATOM     75  CG  LYS A 173      16.478   6.775  61.279  1.00 65.83     0.005 C 
ATOM     76  CD  LYS A 173      17.785   6.004  61.079  1.00 71.51     0.041 C 
ATOM     77  CE  LYS A 173      18.588   6.425  59.867  1.00 69.08     0.338 C 
ATOM     78  NZ  LYS A 173      17.909   7.491  59.085  1.00 69.29     0.618 N 
ATOM     79  CA  LYS A 174      15.508   2.484  62.776  1.00 51.48     0.186 C 
ATOM     80  CB  LYS A 174      16.296   1.384  63.512  1.00 52.43     0.034 C 
ATOM     81  CG  LYS A 174      17.260   0.552  62.709  1.00 57.02     0.005 C 
ATOM     82  CD  LYS A 174      16.538  -0.619  62.042  1.00 61.29     0.041 C 
ATOM     83  CE  LYS A 174      17.259  -1.936  62.186  1.00 63.07     0.338 C 
ATOM     84  NZ  LYS A 174      17.337  -2.366  63.605  1.00 64.24     0.618 N 
ATOM     85  CA  CYS A 175      12.531   1.156  60.693  1.00 52.05     0.198 C 
ATOM     86  CB  CYS A 175      12.594   0.885  59.188  1.00 52.97     0.103 C 
ATOM     87  SG  CYS A 175      11.135   0.052  58.505  1.00 58.19    -0.080 SA
ATOM     88  CA  SER A 176      12.543  -2.161  62.656  1.00 47.09     0.219 C 
ATOM     89  CB  SER A 176      13.797  -2.935  63.058  1.00 49.42     0.216 C 
ATOM     90  OG  SER A 176      13.503  -4.023  63.920  1.00 57.35    -0.218 OA
ATOM     91  CA  LYS A 179       7.152  -2.688  62.727  1.00 48.92     0.186 C 
ATOM     92  CB  LYS A 179       8.163  -3.565  61.966  1.00 50.09     0.034 C 
ATOM     93  CG  LYS A 179       7.479  -4.644  61.142  1.00 55.91     0.005 C 
ATOM     94  CD  LYS A 179       6.598  -4.075  60.075  1.00 55.19     0.041 C 
ATOM     95  CE  LYS A 179       6.443  -5.081  58.972  1.00 53.09     0.338 C 
ATOM     96  NZ  LYS A 179       6.392  -4.445  57.630  1.00 49.98     0.618 N 
ATOM     97  CA  HIS A 187      10.766  -8.273  56.477  1.00 45.14     0.192 C 
ATOM     98  CB  HIS A 187      11.101  -7.312  57.639  1.00 44.58     0.082 C 
ATOM     99  CG  HIS A 187      11.833  -7.960  58.776  1.00 46.33     0.082 A 
ATOM    100  ND1 HIS A 187      12.841  -8.879  58.552  1.00 47.66    -0.227 NA
ATOM    101  CE1 HIS A 187      13.262  -9.246  59.750  1.00 45.53     0.199 A 
ATOM    102  NE2 HIS A 187      12.586  -8.629  60.715  1.00 45.13    -0.221 NA
ATOM    103  CD2 HIS A 187      11.673  -7.805  60.109  1.00 46.10     0.116 A 
ATOM    104  CA  VAL A 190      11.268 -10.574  51.763  1.00 49.37     0.186 C 
ATOM    105  CB  VAL A 190      10.556  -9.205  51.945  1.00 53.61     0.032 C 
ATOM    106  CG1 VAL A 190       9.277  -9.329  52.746  1.00 53.25     0.003 C 
ATOM    107  CG2 VAL A 190      11.483  -8.207  52.609  1.00 54.78     0.003 C 
ATOM    108  CA  ASN A 191      15.033 -10.052  52.403  1.00 41.57     0.196 C 
ATOM    109  CB  ASN A 191      15.643  -9.498  53.680  1.00 36.18     0.126 C 
ATOM    110  CG  ASN A 191      16.491 -10.537  54.375  1.00 51.01     0.276 C 
ATOM    111  OD1 ASN A 191      16.002 -11.391  55.119  1.00 48.94    -0.269 OA
ATOM    112  ND2 ASN A 191      17.768 -10.544  54.098  1.00 41.78    -0.107 N 
ATOM    113  CA  CYS A 194      15.509 -10.879  47.360  1.00 42.51     0.198 C 
ATOM    114  CB  CYS A 194      15.406  -9.501  47.992  1.00 42.24     0.103 C 
ATOM    115  SG  CYS A 194      16.676  -9.208  49.247  1.00 47.54    -0.080 SA
ATOM    116  CA  ARG A 256      22.497  -7.543  54.070  1.00 40.71     0.186 C 
ATOM    117  CB  ARG A 256      21.648  -7.737  52.800  1.00 38.64     0.036 C 
ATOM    118  CG  ARG A 256      20.698  -8.930  52.911  1.00 42.53     0.029 C 
ATOM    119  CD  ARG A 256      19.881  -9.147  51.637  1.00 44.33     0.145 C 
ATOM    120  NE  ARG A 256      18.741  -8.239  51.518  1.00 40.66    -0.083 NA
ATOM    121  CZ  ARG A 256      18.642  -7.279  50.606  1.00 52.38     0.782 C 
ATOM    122  NH1 ARG A 256      19.606  -7.099  49.711  1.00 37.43     0.063 N 
ATOM    123  NH2 ARG A 256      17.571  -6.501  50.569  1.00 45.57     0.063 N 
ATOM    124  CA  TYR A 259      22.125  -6.560  59.107  1.00 36.70     0.191 C 
ATOM    125  CB  TYR A 259      22.302  -5.448  58.050  1.00 36.37     0.060 C 
ATOM    126  CG  TYR A 259      20.972  -4.950  57.523  1.00 37.29    -0.020 A 
ATOM    127  CD2 TYR A 259      20.899  -4.197  56.354  1.00 37.84    -0.002 A 
ATOM    128  CE2 TYR A 259      19.670  -3.788  55.831  1.00 39.35     0.027 A 
ATOM    129  CZ  TYR A 259      18.494  -4.163  56.466  1.00 44.59     0.131 A 
ATOM    130  OH  TYR A 259      17.266  -3.789  55.988  1.00 41.50    -0.190 OA
ATOM    131  CE1 TYR A 259      18.543  -4.957  57.596  1.00 38.92     0.027 A 
ATOM    132  CD1 TYR A 259      19.775  -5.351  58.113  1.00 39.21    -0.002 A 
ATOM    133  CA  GLN A 263      16.853  -5.928  62.804  1.00 41.02     0.187 C 
ATOM    134  CB  GLN A 263      16.534  -5.555  61.339  1.00 41.50     0.044 C 
ATOM    135  CG  GLN A 263      15.358  -6.289  60.700  1.00 37.86     0.094 C 
ATOM    136  CD  GLN A 263      14.075  -5.490  60.840  1.00 48.33     0.274 C 
ATOM    137  OE1 GLN A 263      13.160  -5.857  61.589  1.00 42.79    -0.269 OA
ATOM    138  NE2 GLN A 263      13.960  -4.389  60.108  1.00 33.55    -0.107 N 
ATOM    139  CA  PHE A 277      24.046  -0.281  59.829  1.00 37.48     0.191 C 
ATOM    140  CB  PHE A 277      23.381   0.613  60.894  1.00 38.98     0.060 C 
ATOM    141  CG  PHE A 277      22.313  -0.099  61.697  1.00 40.06    -0.020 A 
ATOM    142  CD1 PHE A 277      22.648  -1.105  62.599  1.00 41.47    -0.004 A 
ATOM    143  CE1 PHE A 277      21.663  -1.766  63.332  1.00 41.97    -0.000 A 
ATOM    144  CZ  PHE A 277      20.339  -1.428  63.163  1.00 41.82    -0.000 A 
ATOM    145  CE2 PHE A 277      19.984  -0.431  62.281  1.00 44.30    -0.000 A 
ATOM    146  CD2 PHE A 277      20.968   0.227  61.542  1.00 41.93    -0.004 A 
ATOM    147  CA  LYS A 280      24.627  -1.514  54.783  1.00 38.25     0.186 C 
ATOM    148  CB  LYS A 280      23.432  -2.191  55.492  1.00 39.37     0.034 C 
ATOM    149  CG  LYS A 280      23.710  -3.523  56.161  1.00 48.63     0.005 C 
ATOM    150  CD  LYS A 280      25.021  -4.154  55.706  1.00 43.59     0.041 C 
ATOM    151  CE  LYS A 280      25.927  -4.258  56.906  1.00 39.84     0.338 C 
ATOM    152  NZ  LYS A 280      25.787  -5.537  57.627  1.00 34.79     0.618 N 
ENDMDL
REMARK VINA RESULT:       3.6      1.913      2.979
REMARK  14 active torsions:
REMARK  status: ('A' for Active; 'I' for Inactive)
REMARK    1  A    between atoms: C_3  and  C_21 
REMARK    2  A    between atoms: C_3  and  O_17 
REMARK    3  A    between atoms: C_8  and  N_27 
REMARK    4  A    between atoms: O_12  and  C_20 
REMARK    5  A    between atoms: O_13  and  C_22 
REMARK    6  A    between atoms: O_14  and  P_32 
REMARK    7  A    between atoms: O_15  and  P_33 
REMARK    8  A    between atoms: O_16  and  P_33 
REMARK    9  A    between atoms: O_17  and  P_31 
REMARK   10  A    between atoms: O_18  and  P_31 
REMARK   11  A    between atoms: O_18  and  P_32 
REMARK   12  A    between atoms: C_19  and  N_36 
REMARK   13  A    between atoms: S_37  and  P_31 
REMARK   14  A    between atoms: P_33  and  P_32 
REMARK  4 active torsions:
REMARK  status: ('A' for Active; 'I' for Inactive)
REMARK    1  A    between atoms: CA   and  CB  
REMARK    2  A    between atoms: CB   and  CG  
REMARK    3  A    between atoms: CG   and  CD  
REMARK    4  A    between atoms: CD   and  NE  
REMARK       I    between atoms: NE   and  CZ  
REMARK  2 active torsions:
REMARK  status: ('A' for Active; 'I' for Inactive)
REMARK    5  A    between atoms: CA   and  CB  
REMARK    6  A    between atoms: CB   and  SG  
REMARK  3 active torsions:
REMARK  status: ('A' for Active; 'I' for Inactive)
REMARK    7  A    between atoms: CA   and  CB  
REMARK    8  A    between atoms: CB   and  CG  
REMARK    9  A    between atoms: CG   and  CD  
REMARK  1 active torsions:
REMARK  status: ('A' for Active; 'I' for Inactive)
REMARK   10  A    between atoms: CA   and  CB  
REMARK  1 active torsions:
REMARK  status: ('A' for Active; 'I' for Inactive)
REMARK   11  A    between atoms: CA   and  CB  
REMARK  2 active torsions:
REMARK  status: ('A' for Active; 'I' for Inactive)
REMARK   12  A    between atoms: CA   and  CB  
REMARK   13  A    between atoms: CB   and  CG  
REMARK  2 active torsions:
REMARK  status: ('A' for Active; 'I' for Inactive)
REMARK   14  A    between atoms: CA   and  CB  
REMARK   15  A    between atoms: CB   and  CG  
REMARK  2 active torsions:
REMARK  status: ('A' for Active; 'I' for Inactive)
REMARK   16  A    between atoms: CA   and  CB  
REMARK   17  A    between atoms: CB   and  CG  
REMARK  3 active torsions:
REMARK  status: ('A' for Active; 'I' for Inactive)
REMARK   18  A    between atoms: CA   and  CB  
REMARK   19  A    between atoms: CB   and  CG  
REMARK   20  A    between atoms: CG   and  SD  
REMARK  2 active torsions:
REMARK  status: ('A' for Active; 'I' for Inactive)
REMARK   21  A    between atoms: CA   and  CB  
REMARK   22  A    between atoms: CB   and  CG  
REMARK  1 active torsions:
REMARK  status: ('A' for Active; 'I' for Inactive)
REMARK   23  A    between atoms: CA   and  CB  
REMARK  2 active torsions:
REMARK  status: ('A' for Active; 'I' for Inactive)
REMARK   24  A    between atoms: CA   and  CB  
REMARK   25  A    between atoms: CB   and  CG  
REMARK  1 active torsions:
REMARK  status: ('A' for Active; 'I' for Inactive)
REMARK   26  A    between atoms: CA   and  CB  
REMARK  4 active torsions:
REMARK  status: ('A' for Active; 'I' for Inactive)
REMARK   27  A    between atoms: CA   and  CB  
REMARK   28  A    between atoms: CB   and  CG  
REMARK   29  A    between atoms: CG   and  CD  
REMARK   30  A    between atoms: CD   and  CE  
REMARK  4 active torsions:
REMARK  status: ('A' for Active; 'I' for Inactive)
REMARK   31  A    between atoms: CA   and  CB  
REMARK   32  A    between atoms: CB   and  CG  
REMARK   33  A    between atoms: CG   and  CD  
REMARK   34  A    between atoms: CD   and  CE  
REMARK  2 active torsions:
REMARK  status: ('A' for Active; 'I' for Inactive)
REMARK   35  A    between atoms: CA   and  CB  
REMARK   36  A    between atoms: CB   and  SG  
REMARK  1 active torsions:
REMARK  status: ('A' for Active; 'I' for Inactive)
REMARK   37  A    between atoms: CA   and  CB  
REMARK  4 active torsions:
REMARK  status: ('A' for Active; 'I' for Inactive)
REMARK   38  A    between atoms: CA   and  CB  
REMARK   39  A    between atoms: CB   and  CG  
REMARK   40  A    between atoms: CG   and  CD  
REMARK   41  A    between atoms: CD   and  CE  
REMARK  2 active torsions:
REMARK  status: ('A' for Active; 'I' for Inactive)
REMARK   42  A    between atoms: CA   and  CB  
REMARK   43  A    between atoms: CB   and  CG  
REMARK  1 active torsions:
REMARK  status: ('A' for Active; 'I' for Inactive)
REMARK   44  A    between atoms: CA   and  CB  
REMARK  2 active torsions:
REMARK  status: ('A' for Active; 'I' for Inactive)
REMARK   45  A    between atoms: CA   and  CB  
REMARK   46  A    between atoms: CB   and  CG  
REMARK  1 active torsions:
REMARK  status: ('A' for Active; 'I' for Inactive)
REMARK   47  A    between atoms: CA   and  CB  
REMARK  4 active torsions:
REMARK  status: ('A' for Active; 'I' for Inactive)
REMARK   48  A    between atoms: CA   and  CB  
REMARK   49  A    between atoms: CB   and  CG  
REMARK   50  A    between atoms: CG   and  CD  
REMARK   51  A    between atoms: CD   and  NE  
REMARK       I    between atoms: NE   and  CZ  
REMARK  2 active torsions:
REMARK  status: ('A' for Active; 'I' for Inactive)
REMARK   52  A    between atoms: CA   and  CB  
REMARK   53  A    between atoms: CB   and  CG  
REMARK  3 active torsions:
REMARK  status: ('A' for Active; 'I' for Inactive)
REMARK   54  A    between atoms: CA   and  CB  
REMARK   55  A    between atoms: CB   and  CG  
REMARK   56  A    between atoms: CG   and  CD  
REMARK  2 active torsions:
REMARK  status: ('A' for Active; 'I' for Inactive)
REMARK   57  A    between atoms: CA   and  CB  
REMARK   58  A    between atoms: CB   and  CG  
REMARK  4 active torsions:
REMARK  status: ('A' for Active; 'I' for Inactive)
REMARK   59  A    between atoms: CA   and  CB  
REMARK   60  A    between atoms: CB   and  CG  
REMARK   61  A    between atoms: CG   and  CD  
REMARK   62  A    between atoms: CD   and  CE  
REMARK viewdock state: D
ATOM      1  C   LIG d 111      14.356  -3.037  54.321  0.00  0.00     0.434 A 
ATOM      2  C   LIG d 111      11.218  -4.125  51.488  0.00  0.00     0.230 A 
ATOM      3  C   LIG d 111      12.972  -5.476  52.186  0.00  0.00     0.152 A 
ATOM      4  N   LIG d 111      11.514  -3.042  52.242  0.00  0.00    -0.173 NA
ATOM      5  N   LIG d 111      14.469  -4.261  53.848  0.00  0.00    -0.182 NA
ATOM      6  N   LIG d 111      11.873  -5.303  51.417  0.00  0.00    -0.218 NA
ATOM      7  C   LIG d 111      12.626  -3.260  52.967  0.00  0.00     0.339 A 
ATOM      8  C   LIG d 111      13.396  -4.411  52.998  0.00  0.00     0.201 A 
ATOM      9  N   LIG d 111      13.242  -2.400  53.838  0.00  0.00    -0.132 N 
ATOM     10  C   LIG d 111      12.811  -1.045  54.132  0.00  0.00     0.443 C 
ATOM     11  O   LIG d 111      13.967  -0.182  54.193  0.00  0.00    -0.309 OA
ATOM     12  C   LIG d 111      13.834   0.685  55.344  0.00  0.00     0.182 C 
ATOM     13  C   LIG d 111      12.398   0.543  55.831  0.00  0.00     0.183 C 
ATOM     14  C   LIG d 111      12.095  -0.902  55.482  0.00  0.00     0.244 C 
ATOM     15  C   LIG d 111      14.226   2.106  54.952  0.00  0.00     0.203 C 
ATOM     16  O   LIG d 111      15.424   2.463  55.643  0.00  0.00    -0.321 OA
ATOM     17  P   LIG d 111      16.648   3.146  54.814  0.00  0.00     0.234 P 
ATOM     18  S   LIG d 111      16.935   2.287  53.093  0.00  0.00     0.003 SA
ATOM     19  O   LIG d 111      17.824   2.753  55.847  0.00  0.00    -0.238 OA
ATOM     20  P   LIG d 111      17.633   1.861  57.167  0.00  0.00     0.445 P 
ATOM     21  O   LIG d 111      18.920   1.798  57.948  0.00  0.00    -0.245 OA
ATOM     22  O   LIG d 111      16.618   2.816  58.001  0.00  0.00    -0.316 OA
ATOM     23  H   LIG d 111      16.824   3.760  57.858  0.00  0.00     0.220 HD
ATOM     24  P   LIG d 111      16.694  -0.289  56.741  0.00  0.00     0.438 P 
ATOM     25  O   LIG d 111      17.503  -1.398  57.348  0.00  0.00    -0.246 OA
ATOM     26  O   LIG d 111      16.457  -0.587  55.173  0.00  0.00    -0.316 OA
ATOM     27  H   LIG d 111      15.961   0.149  54.761  0.00  0.00     0.220 HD
ATOM     28  O   LIG d 111      15.146  -0.396  57.205  0.00  0.00    -0.316 OA
ATOM     29  H   LIG d 111      14.968  -1.122  57.831  0.00  0.00     0.220 HD
ATOM     30  S   LIG d  11      16.340   5.219  54.955  0.00  0.00    -0.091 SA
ATOM     31  H   LIG d  11      17.021   5.381  56.097  0.00  0.00     0.111 HD
ATOM     32  O   LIG d 111      11.507   1.404  55.117  0.00  0.00    -0.386 OA
ATOM     33  H   LIG d 111      12.077   2.111  54.745  0.00  0.00     0.210 HD
ATOM     34  O   LIG d 111      10.681  -1.099  55.427  0.00  0.00    -0.380 OA
ATOM     35  H   LIG d 111      10.284  -0.207  55.308  0.00  0.00     0.210 HD
ATOM     36  N   LIG d 111      13.640  -6.692  52.115  0.00  0.00    -0.341 NA
ATOM     37  H   LIG d 111      13.019  -7.477  51.948  0.00  0.00     0.144 HD
ATOM     38  H   LIG d 111      14.327  -6.791  52.852  0.00  0.00     0.144 HD
ATOM      1  CA  ARG A  93      11.357   9.429  58.493  1.00 59.89     0.186 C 
ATOM      2  CB  ARG A  93      12.236   9.564  59.757  1.00 58.23     0.036 C 
ATOM      3  CG  ARG A  93      11.601   9.079  61.074  1.00 60.51     0.029 C 
ATOM      4  CD  ARG A  93      11.288   7.585  61.121  1.00 61.21     0.145 C 
ATOM      5  NE  ARG A  93      11.188   7.107  62.502  1.00 60.36    -0.083 NA
ATOM      6  CZ  ARG A  93      11.548   5.896  62.921  1.00 66.21     0.782 C 
ATOM      7  NH2 ARG A  93      11.417   5.566  64.197  1.00 48.93     0.063 N 
ATOM      8  NH1 ARG A  93      12.035   5.004  62.065  1.00 52.54     0.063 N 
ATOM      9  CA  CYS A  97      10.408   3.635  56.475  1.00 55.45     0.198 C 
ATOM     10  CB  CYS A  97      10.309   3.703  57.996  1.00 56.61     0.103 C 
ATOM     11  SG  CYS A  97      11.000   5.210  58.721  1.00 59.92    -0.080 SA
ATOM     12  CA  GLN A  98       6.821   2.814  55.435  1.00 57.21     0.187 C 
ATOM     13  CB  GLN A  98       5.702   3.596  56.134  1.00 60.72     0.044 C 
ATOM     14  CG  GLN A  98       5.935   5.077  56.373  1.00 78.15     0.094 C 
ATOM     15  CD  GLN A  98       4.878   5.925  55.710  1.00 97.60     0.274 C 
ATOM     16  OE1 GLN A  98       4.529   5.749  54.532  1.00 90.91    -0.269 OA
ATOM     17  NE2 GLN A  98       4.344   6.875  56.459  1.00 94.53    -0.107 N 
ATOM     18  CA  SER A 101      12.406   3.303  51.001  1.00 47.65     0.219 C 
ATOM     19  CB  SER A 101      13.190   3.322  52.316  1.00 49.57     0.216 C 
ATOM     20  OG  SER A 101      14.328   4.169  52.319  1.00 54.41    -0.218 OA
ATOM     21  CA  VAL A 102      10.122   0.251  50.319  1.00 45.51     0.186 C 
ATOM     22  CB  VAL A 102       8.740  -0.096  50.947  1.00 49.19     0.032 C 
ATOM     23  CG1 VAL A 102       8.908  -0.755  52.313  1.00 48.60     0.003 C 
ATOM     24  CG2 VAL A 102       7.860   1.147  51.068  1.00 48.10     0.003 C 
ATOM     25  CA  TYR A 105      14.000  -1.737  47.254  1.00 43.40     0.191 C 
ATOM     26  CB  TYR A 105      13.781  -2.368  48.630  1.00 43.23     0.060 C 
ATOM     27  CG  TYR A 105      13.455  -3.846  48.608  1.00 42.60    -0.020 A 
ATOM     28  CD2 TYR A 105      14.411  -4.794  48.961  1.00 43.44    -0.002 A 
ATOM     29  CE2 TYR A 105      14.103  -6.151  49.004  1.00 43.57     0.027 A 
ATOM     30  CZ  TYR A 105      12.818  -6.577  48.712  1.00 47.42     0.131 A 
ATOM     31  OH  TYR A 105      12.526  -7.918  48.773  1.00 47.92    -0.190 OA
ATOM     32  CE1 TYR A 105      11.848  -5.654  48.358  1.00 40.45     0.027 A 
ATOM     33  CD1 TYR A 105      12.164  -4.294  48.330  1.00 42.63    -0.002 A 
ATOM     34  CA  PHE A 106      11.158  -3.179  45.107  1.00 51.18     0.191 C 
ATOM     35  CB  PHE A 106       9.636  -3.197  45.400  1.00 55.17     0.060 C 
ATOM     36  CG  PHE A 106       9.106  -3.022  46.805  1.00 59.28    -0.020 A 
ATOM     37  CD1 PHE A 106       9.541  -3.848  47.840  1.00 63.24    -0.004 A 
ATOM     38  CE1 PHE A 106       9.080  -3.668  49.145  1.00 66.24    -0.000 A 
ATOM     39  CZ  PHE A 106       8.251  -2.605  49.442  1.00 67.24    -0.000 A 
ATOM     40  CE2 PHE A 106       7.864  -1.733  48.447  1.00 68.40    -0.000 A 
ATOM     41  CD2 PHE A 106       8.308  -1.930  47.131  1.00 63.30    -0.004 A 
ATOM     42  CA  TYR A 109      15.002  -5.824  42.359  1.00 44.32     0.191 C 
ATOM     43  CB  TYR A 109      14.401  -6.700  43.474  1.00 43.91     0.060 C 
ATOM     44  CG  TYR A 109      13.830  -7.963  42.869  1.00 41.58    -0.020 A 
ATOM     45  CD1 TYR A 109      14.166  -8.351  41.574  1.00 42.10    -0.002 A 
ATOM     46  CE1 TYR A 109      13.723  -9.562  41.040  1.00 39.95     0.027 A 
ATOM     47  CZ  TYR A 109      12.963 -10.420  41.817  1.00 44.86     0.131 A 
ATOM     48  CE2 TYR A 109      12.634 -10.067  43.115  1.00 40.45     0.027 A 
ATOM     49  OH  TYR A 109      12.515 -11.604  41.287  1.00 45.89    -0.190 OA
ATOM     50  CD2 TYR A 109      13.087  -8.855  43.640  1.00 41.38    -0.002 A 
ATOM     51  CA  MET A 152       7.849  -7.115  43.442  1.00 60.44     0.187 C 
ATOM     52  CB  MET A 152       8.864  -6.222  42.718  1.00 62.10     0.046 C 
ATOM     53  CG  MET A 152      10.085  -5.912  43.540  1.00 64.63     0.060 C 
ATOM     54  SD  MET A 152      10.220  -6.809  45.104  1.00 66.98    -0.139 SA
ATOM     55  CE  MET A 152      11.868  -6.317  45.540  1.00 63.83     0.069 C 
ATOM     56  CA  LEU A 155       6.206  -8.638  48.212  1.00 59.11     0.186 C 
ATOM     57  CB  LEU A 155       7.625  -9.014  47.738  1.00 57.66     0.034 C 
ATOM     58  CG  LEU A 155       8.833  -8.272  48.298  1.00 61.82     0.002 C 
ATOM     59  CD2 LEU A 155       9.155  -7.026  47.484  1.00 63.41     0.000 C 
ATOM     60  CD1 LEU A 155      10.026  -9.185  48.303  1.00 60.03     0.000 C 
ATOM     61  CA  SER A 156       6.509  -4.864  48.930  1.00 56.90     0.219 C 
ATOM     62  CB  SER A 156       6.789  -3.832  47.837  1.00 60.21     0.216 C 
ATOM     63  OG  SER A 156       6.091  -4.064  46.622  1.00 67.39    -0.218 OA
ATOM     64  CA  ASN A 159       6.123  -4.191  54.295  1.00 52.94     0.196 C 
ATOM     65  CB  ASN A 159       7.426  -4.124  53.463  1.00 50.55     0.126 C 
ATOM     66  CG  ASN A 159       8.536  -3.263  54.019  1.00 57.65     0.276 C 
ATOM     67  OD1 ASN A 159       9.587  -3.765  54.394  1.00 61.23    -0.269 OA
ATOM     68  ND2 ASN A 159       8.378  -1.950  54.033  1.00 42.85    -0.107 N 
ATOM     69  CA  THR A 163       5.150  -0.592  59.487  1.00 57.53     0.216 C 
ATOM     70  CB  THR A 163       6.083   0.047  58.432  1.00 61.43     0.184 C 
ATOM     71  OG1 THR A 163       6.280   1.418  58.750  1.00 59.66    -0.221 OA
ATOM     72  CG2 THR A 163       5.541  -0.064  57.015  1.00 57.38     0.038 C 
ATOM     73  CA  LYS A 173      15.330   6.284  63.552  1.00 57.57     0.186 C 
ATOM     74  CB  LYS A 173      16.293   7.171  62.738  1.00 59.52     0.034 C 
ATOM     75  CG  LYS A 173      17.414   6.435  62.016  1.00 65.83     0.005 C 
ATOM     76  CD  LYS A 173      17.384   6.723  60.513  1.00 71.51     0.041 C 
ATOM     77  CE  LYS A 173      18.444   6.000  59.711  1.00 69.08     0.338 C 
ATOM     78  NZ  LYS A 173      18.814   6.737  58.474  1.00 69.29     0.618 N 
ATOM     79  CA  LYS A 174      15.508   2.484  62.776  1.00 51.48     0.186 C 
ATOM     80  CB  LYS A 174      16.296   1.384  63.512  1.00 52.43     0.034 C 
ATOM     81  CG  LYS A 174      16.918   0.290  62.685  1.00 57.02     0.005 C 
ATOM     82  CD  LYS A 174      17.306   0.813  61.302  1.00 61.29     0.041 C 
ATOM     83  CE  LYS A 174      16.474   0.238  60.182  1.00 63.07     0.338 C 
ATOM     84  NZ  LYS A 174      15.648  -0.905  60.645  1.00 64.24     0.618 N 
ATOM     85  CA  CYS A 175      12.531   1.156  60.693  1.00 52.05     0.198 C 
ATOM     86  CB  CYS A 175      12.594   0.885  59.188  1.00 52.97     0.103 C 
ATOM     87  SG  CYS A 175      11.133   0.056  58.505  1.00 58.19    -0.080 SA
ATOM     88  CA  SER A 176      12.543  -2.161  62.656  1.00 47.09     0.219 C 
ATOM     89  CB  SER A 176      13.797  -2.935  63.058  1.00 49.42     0.216 C 
ATOM     90  OG  SER A 176      13.521  -3.943  64.016  1.00 57.35    -0.218 OA
ATOM     91  CA  LYS A 179       7.152  -2.688  62.727  1.00 48.92     0.186 C 
ATOM     92  CB  LYS A 179       8.163  -3.565  61.966  1.00 50.09     0.034 C 
ATOM     93  CG  LYS A 179       8.692  -4.703  62.823  1.00 55.91     0.005 C 
ATOM     94  CD  LYS A 179       9.695  -4.240  63.832  1.00 55.19     0.041 C 
ATOM     95  CE  LYS A 179       9.164  -4.496  65.213  1.00 53.09     0.338 C 
ATOM     96  NZ  LYS A 179      10.232  -4.902  66.162  1.00 49.98     0.618 N 
ATOM     97  CA  HIS A 187      10.766  -8.273  56.477  1.00 45.14     0.192 C 
ATOM     98  CB  HIS A 187      11.101  -7.312  57.639  1.00 44.58     0.082 C 
ATOM     99  CG  HIS A 187      11.841  -7.958  58.772  1.00 46.33     0.082 A 
ATOM    100  ND1 HIS A 187      11.685  -7.524  60.075  1.00 47.66    -0.227 NA
ATOM    101  CE1 HIS A 187      12.470  -8.296  60.806  1.00 45.53     0.199 A 
ATOM    102  NE2 HIS A 187      13.118  -9.183  60.055  1.00 45.13    -0.221 NA
ATOM    103  CD2 HIS A 187      12.726  -8.979  58.757  1.00 46.10     0.116 A 
ATOM    104  CA  VAL A 190      11.268 -10.574  51.763  1.00 49.37     0.186 C 
ATOM    105  CB  VAL A 190      10.556  -9.205  51.945  1.00 53.61     0.032 C 
ATOM    106  CG1 VAL A 190       9.176  -9.356  52.549  1.00 53.25     0.003 C 
ATOM    107  CG2 VAL A 190      11.395  -8.279  52.803  1.00 54.78     0.003 C 
ATOM    108  CA  ASN A 191      15.033 -10.052  52.403  1.00 41.57     0.196 C 
ATOM    109  CB  ASN A 191      15.643  -9.498  53.680  1.00 36.18     0.126 C 
ATOM    110  CG  ASN A 191      15.641 -10.534  54.779  1.00 51.01     0.276 C 
ATOM    111  OD1 ASN A 191      15.230 -10.284  55.915  1.00 48.94    -0.269 OA
ATOM    112  ND2 ASN A 191      16.029 -11.741  54.459  1.00 41.78    -0.107 N 
ATOM    113  CA  CYS A 194      15.509 -10.879  47.360  1.00 42.51     0.198 C 
ATOM    114  CB  CYS A 194      15.406  -9.501  47.992  1.00 42.24     0.103 C 
ATOM    115  SG  CYS A 194      16.744  -9.164  49.163  1.00 47.54    -0.080 SA
ATOM    116  CA  ARG A 256      22.497  -7.543  54.070  1.00 40.71     0.186 C 
ATOM    117  CB  ARG A 256      21.648  -7.737  52.800  1.00 38.64     0.036 C 
ATOM    118  CG  ARG A 256      21.224  -9.192  52.599  1.00 42.53     0.029 C 
ATOM    119  CD  ARG A 256      19.711  -9.382  52.712  1.00 44.33     0.145 C 
ATOM    120  NE  ARG A 256      19.294  -9.954  53.991  1.00 40.66    -0.083 NA
ATOM    121  CZ  ARG A 256      18.999 -11.236  54.177  1.00 52.38     0.782 C 
ATOM    122  NH1 ARG A 256      19.088 -12.099  53.173  1.00 37.43     0.063 N 
ATOM    123  NH2 ARG A 256      18.629 -11.669  55.372  1.00 45.57     0.063 N 
ATOM    124  CA  TYR A 259      22.125  -6.560  59.107  1.00 36.70     0.191 C 
ATOM    125  CB  TYR A 259      22.302  -5.448  58.050  1.00 36.37     0.060 C 
ATOM    126  CG  TYR A 259      20.979  -5.024  57.446  1.00 37.29    -0.020 A 
ATOM    127  CD2 TYR A 259      19.771  -5.381  58.039  1.00 37.84    -0.002 A 
ATOM    128  CE2 TYR A 259      18.551  -4.942  57.521  1.00 39.35     0.027 A 
ATOM    129  CZ  TYR A 259      18.537  -4.105  56.412  1.00 44.59     0.131 A 
ATOM    130  OH  TYR A 259      17.365  -3.646  55.871  1.00 41.50    -0.190 OA
ATOM    131  CE1 TYR A 259      19.727  -3.695  55.843  1.00 38.92     0.027 A 
ATOM    132  CD1 TYR A 259      20.937  -4.147  56.363  1.00 39.21    -0.002 A 
ATOM    133  CA  GLN A 263      16.853  -5.928  62.804  1.00 41.02     0.187 C 
ATOM    134  CB  GLN A 263      16.534  -5.555  61.339  1.00 41.50     0.044 C 
ATOM    135  CG  GLN A 263      15.328  -6.253  60.716  1.00 37.86     0.094 C 
ATOM    136  CD  GLN A 263      14.071  -5.419  60.878  1.00 48.33     0.274 C 
ATOM    137  OE1 GLN A 263      13.188  -5.725  61.691  1.00 42.79    -0.269 OA
ATOM    138  NE2 GLN A 263      13.940  -4.356  60.095  1.00 33.55    -0.107 N 
ATOM    139  CA  PHE A 277      24.046  -0.281  59.829  1.00 37.48     0.191 C 
ATOM    140  CB  PHE A 277      23.381   0.613  60.894  1.00 38.98     0.060 C 
ATOM    141  CG  PHE A 277      22.269  -0.080  61.654  1.00 40.06    -0.020 A 
ATOM    142  CD1 PHE A 277      22.552  -1.083  62.577  1.00 41.47    -0.004 A 
ATOM    143  CE1 PHE A 277      21.527  -1.727  63.270  1.00 41.97    -0.000 A 
ATOM    144  CZ  PHE A 277      20.216  -1.373  63.040  1.00 41.82    -0.000 A 
ATOM    145  CE2 PHE A 277      19.913  -0.379  62.136  1.00 44.30    -0.000 A 
ATOM    146  CD2 PHE A 277      20.937   0.261  61.437  1.00 41.93    -0.004 A 
ATOM    147  CA  LYS A 280      24.627  -1.514  54.783  1.00 38.25     0.186 C 
ATOM    148  CB  LYS A 280      23.432  -2.191  55.492  1.00 39.37     0.034 C 
ATOM    149  CG  LYS A 280      23.391  -3.706  55.449  1.00 48.63     0.005 C 
ATOM    150  CD  LYS A 280      22.541  -4.245  54.304  1.00 43.59     0.041 C 
ATOM    151  CE  LYS A 280      23.178  -3.813  53.009  1.00 39.84     0.338 C 
ATOM    152  NZ  LYS A 280      24.626  -4.089  52.955  1.00 34.79     0.618 N 
ENDMDL
REMARK VINA RESULT:       4.0      2.015      3.004
REMARK  14 active torsions:
REMARK  status: ('A' for Active; 'I' for Inactive)
REMARK    1  A    between atoms: C_3  and  C_21 
REMARK    2  A    between atoms: C_3  and  O_17 
REMARK    3  A    between atoms: C_8  and  N_27 
REMARK    4  A    between atoms: O_12  and  C_20 
REMARK    5  A    between atoms: O_13  and  C_22 
REMARK    6  A    between atoms: O_14  and  P_32 
REMARK    7  A    between atoms: O_15  and  P_33 
REMARK    8  A    between atoms: O_16  and  P_33 
REMARK    9  A    between atoms: O_17  and  P_31 
REMARK   10  A    between atoms: O_18  and  P_31 
REMARK   11  A    between atoms: O_18  and  P_32 
REMARK   12  A    between atoms: C_19  and  N_36 
REMARK   13  A    between atoms: S_37  and  P_31 
REMARK   14  A    between atoms: P_33  and  P_32 
REMARK  4 active torsions:
REMARK  status: ('A' for Active; 'I' for Inactive)
REMARK    1  A    between atoms: CA   and  CB  
REMARK    2  A    between atoms: CB   and  CG  
REMARK    3  A    between atoms: CG   and  CD  
REMARK    4  A    between atoms: CD   and  NE  
REMARK       I    between atoms: NE   and  CZ  
REMARK  2 active torsions:
REMARK  status: ('A' for Active; 'I' for Inactive)
REMARK    5  A    between atoms: CA   and  CB  
REMARK    6  A    between atoms: CB   and  SG  
REMARK  3 active torsions:
REMARK  status: ('A' for Active; 'I' for Inactive)
REMARK    7  A    between atoms: CA   and  CB  
REMARK    8  A    between atoms: CB   and  CG  
REMARK    9  A    between atoms: CG   and  CD  
REMARK  1 active torsions:
REMARK  status: ('A' for Active; 'I' for Inactive)
REMARK   10  A    between atoms: CA   and  CB  
REMARK  1 active torsions:
REMARK  status: ('A' for Active; 'I' for Inactive)
REMARK   11  A    between atoms: CA   and  CB  
REMARK  2 active torsions:
REMARK  status: ('A' for Active; 'I' for Inactive)
REMARK   12  A    between atoms: CA   and  CB  
REMARK   13  A    between atoms: CB   and  CG  
REMARK  2 active torsions:
REMARK  status: ('A' for Active; 'I' for Inactive)
REMARK   14  A    between atoms: CA   and  CB  
REMARK   15  A    between atoms: CB   and  CG  
REMARK  2 active torsions:
REMARK  status: ('A' for Active; 'I' for Inactive)
REMARK   16  A    between atoms: CA   and  CB  
REMARK   17  A    between atoms: CB   and  CG  
REMARK  3 active torsions:
REMARK  status: ('A' for Active; 'I' for Inactive)
REMARK   18  A    between atoms: CA   and  CB  
REMARK   19  A    between atoms: CB   and  CG  
REMARK   20  A    between atoms: CG   and  SD  
REMARK  2 active torsions:
REMARK  status: ('A' for Active; 'I' for Inactive)
REMARK   21  A    between atoms: CA   and  CB  
REMARK   22  A    between atoms: CB   and  CG  
REMARK  1 active torsions:
REMARK  status: ('A' for Active; 'I' for Inactive)
REMARK   23  A    between atoms: CA   and  CB  
REMARK  2 active torsions:
REMARK  status: ('A' for Active; 'I' for Inactive)
REMARK   24  A    between atoms: CA   and  CB  
REMARK   25  A    between atoms: CB   and  CG  
REMARK  1 active torsions:
REMARK  status: ('A' for Active; 'I' for Inactive)
REMARK   26  A    between atoms: CA   and  CB  
REMARK  4 active torsions:
REMARK  status: ('A' for Active; 'I' for Inactive)
REMARK   27  A    between atoms: CA   and  CB  
REMARK   28  A    between atoms: CB   and  CG  
REMARK   29  A    between atoms: CG   and  CD  
REMARK   30  A    between atoms: CD   and  CE  
REMARK  4 active torsions:
REMARK  status: ('A' for Active; 'I' for Inactive)
REMARK   31  A    between atoms: CA   and  CB  
REMARK   32  A    between atoms: CB   and  CG  
REMARK   33  A    between atoms: CG   and  CD  
REMARK   34  A    between atoms: CD   and  CE  
REMARK  2 active torsions:
REMARK  status: ('A' for Active; 'I' for Inactive)
REMARK   35  A    between atoms: CA   and  CB  
REMARK   36  A    between atoms: CB   and  SG  
REMARK  1 active torsions:
REMARK  status: ('A' for Active; 'I' for Inactive)
REMARK   37  A    between atoms: CA   and  CB  
REMARK  4 active torsions:
REMARK  status: ('A' for Active; 'I' for Inactive)
REMARK   38  A    between atoms: CA   and  CB  
REMARK   39  A    between atoms: CB   and  CG  
REMARK   40  A    between atoms: CG   and  CD  
REMARK   41  A    between atoms: CD   and  CE  
REMARK  2 active torsions:
REMARK  status: ('A' for Active; 'I' for Inactive)
REMARK   42  A    between atoms: CA   and  CB  
REMARK   43  A    between atoms: CB   and  CG  
REMARK  1 active torsions:
REMARK  status: ('A' for Active; 'I' for Inactive)
REMARK   44  A    between atoms: CA   and  CB  
REMARK  2 active torsions:
REMARK  status: ('A' for Active; 'I' for Inactive)
REMARK   45  A    between atoms: CA   and  CB  
REMARK   46  A    between atoms: CB   and  CG  
REMARK  1 active torsions:
REMARK  status: ('A' for Active; 'I' for Inactive)
REMARK   47  A    between atoms: CA   and  CB  
REMARK  4 active torsions:
REMARK  status: ('A' for Active; 'I' for Inactive)
REMARK   48  A    between atoms: CA   and  CB  
REMARK   49  A    between atoms: CB   and  CG  
REMARK   50  A    between atoms: CG   and  CD  
REMARK   51  A    between atoms: CD   and  NE  
REMARK       I    between atoms: NE   and  CZ  
REMARK  2 active torsions:
REMARK  status: ('A' for Active; 'I' for Inactive)
REMARK   52  A    between atoms: CA   and  CB  
REMARK   53  A    between atoms: CB   and  CG  
REMARK  3 active torsions:
REMARK  status: ('A' for Active; 'I' for Inactive)
REMARK   54  A    between atoms: CA   and  CB  
REMARK   55  A    between atoms: CB   and  CG  
REMARK   56  A    between atoms: CG   and  CD  
REMARK  2 active torsions:
REMARK  status: ('A' for Active; 'I' for Inactive)
REMARK   57  A    between atoms: CA   and  CB  
REMARK   58  A    between atoms: CB   and  CG  
REMARK  4 active torsions:
REMARK  status: ('A' for Active; 'I' for Inactive)
REMARK   59  A    between atoms: CA   and  CB  
REMARK   60  A    between atoms: CB   and  CG  
REMARK   61  A    between atoms: CG   and  CD  
REMARK   62  A    between atoms: CD   and  CE  
REMARK viewdock state: D
ATOM      1  C   LIG d 111      11.171  -4.272  52.326  0.00  0.00     0.434 A 
ATOM      2  C   LIG d 111      15.502  -4.244  52.871  0.00  0.00     0.230 A 
ATOM      3  C   LIG d 111      14.305  -5.618  51.434  0.00  0.00     0.152 A 
ATOM      4  N   LIG d 111      14.457  -3.541  53.362  0.00  0.00    -0.173 NA
ATOM      5  N   LIG d 111      11.806  -5.151  51.579  0.00  0.00    -0.182 NA
ATOM      6  N   LIG d 111      15.492  -5.240  51.960  0.00  0.00    -0.218 NA
ATOM      7  C   LIG d 111      13.302  -3.974  52.824  0.00  0.00     0.339 A 
ATOM      8  C   LIG d 111      13.139  -4.977  51.883  0.00  0.00     0.201 A 
ATOM      9  N   LIG d 111      12.035  -3.518  53.077  0.00  0.00    -0.132 N 
ATOM     10  C   LIG d 111      11.689  -2.469  54.021  0.00  0.00     0.443 C 
ATOM     11  O   LIG d 111      12.695  -1.436  53.972  0.00  0.00    -0.309 OA
ATOM     12  C   LIG d 111      13.023  -1.048  55.326  0.00  0.00     0.182 C 
ATOM     13  C   LIG d 111      11.960  -1.664  56.225  0.00  0.00     0.183 C 
ATOM     14  C   LIG d 111      11.629  -2.943  55.479  0.00  0.00     0.244 C 
ATOM     15  C   LIG d 111      13.109   0.473  55.409  0.00  0.00     0.203 C 
ATOM     16  O   LIG d 111      14.390   0.837  55.926  0.00  0.00    -0.321 OA
ATOM     17  P   LIG d 111      15.723   0.113  55.332  0.00  0.00     0.234 P 
ATOM     18  S   LIG d 111      15.449  -1.788  55.028  0.00  0.00     0.003 SA
ATOM     19  O   LIG d 111      16.664   0.352  56.622  0.00  0.00    -0.238 OA
ATOM     20  P   LIG d 111      16.916   1.770  57.330  0.00  0.00     0.445 P 
ATOM     21  O   LIG d 111      15.792   2.087  58.281  0.00  0.00    -0.245 OA
ATOM     22  O   LIG d 111      18.213   1.398  58.235  0.00  0.00    -0.316 OA
ATOM     23  H   LIG d 111      19.028   1.780  57.857  0.00  0.00     0.220 HD
ATOM     24  P   LIG d 111      17.370   3.537  55.797  0.00  0.00     0.438 P 
ATOM     25  O   LIG d 111      16.148   3.967  55.039  0.00  0.00    -0.246 OA
ATOM     26  O   LIG d 111      18.559   3.198  54.758  0.00  0.00    -0.316 OA
ATOM     27  H   LIG d 111      18.720   3.961  54.169  0.00  0.00     0.220 HD
ATOM     28  O   LIG d 111      18.076   4.811  56.504  0.00  0.00    -0.316 OA
ATOM     29  H   LIG d 111      17.884   5.664  56.072  0.00  0.00     0.220 HD
ATOM     30  S   LIG d  11      16.414   1.370  53.798  0.00  0.00    -0.091 SA
ATOM     31  H   LIG d  11      15.250   1.435  53.139  0.00  0.00     0.111 HD
ATOM     32  O   LIG d 111      10.791  -0.843  56.305  0.00  0.00    -0.386 OA
ATOM     33  H   LIG d 111      11.085   0.051  56.027  0.00  0.00     0.210 HD
ATOM     34  O   LIG d 111      10.351  -3.428  55.894  0.00  0.00    -0.380 OA
ATOM     35  H   LIG d 111      10.086  -4.106  55.232  0.00  0.00     0.210 HD
ATOM     36  N   LIG d 111      14.298  -6.639  50.492  0.00  0.00    -0.341 NA
ATOM     37  H   LIG d 111      14.488  -7.551  50.894  0.00  0.00     0.144 HD
ATOM     38  H   LIG d 111      14.806  -6.385  49.654  0.00  0.00     0.144 HD
ATOM      1  CA  ARG A  93      11.357   9.429  58.493  1.00 59.89     0.186 C 
ATOM      2  CB  ARG A  93      12.236   9.564  59.757  1.00 58.23     0.036 C 
ATOM      3  CG  ARG A  93      11.493   9.912  61.061  1.00 60.51     0.029 C 
ATOM      4  CD  ARG A  93      10.561   8.818  61.577  1.00 61.21     0.145 C 
ATOM      5  NE  ARG A  93      11.270   7.545  61.729  1.00 60.36    -0.083 NA
ATOM      6  CZ  ARG A  93      10.958   6.595  62.607  1.00 66.21     0.782 C 
ATOM      7  NH2 ARG A  93      11.667   5.477  62.659  1.00 48.93     0.063 N 
ATOM      8  NH1 ARG A  93       9.940   6.759  63.444  1.00 52.54     0.063 N 
ATOM      9  CA  CYS A  97      10.408   3.635  56.475  1.00 55.45     0.198 C 
ATOM     10  CB  CYS A  97      10.309   3.703  57.996  1.00 56.61     0.103 C 
ATOM     11  SG  CYS A  97       9.209   2.466  58.727  1.00 59.92    -0.080 SA
ATOM     12  CA  GLN A  98       6.821   2.814  55.435  1.00 57.21     0.187 C 
ATOM     13  CB  GLN A  98       5.702   3.596  56.134  1.00 60.72     0.044 C 
ATOM     14  CG  GLN A  98       5.938   5.076  56.379  1.00 78.15     0.094 C 
ATOM     15  CD  GLN A  98       4.890   5.929  55.710  1.00 97.60     0.274 C 
ATOM     16  OE1 GLN A  98       4.533   5.742  54.537  1.00 90.91    -0.269 OA
ATOM     17  NE2 GLN A  98       4.373   6.897  56.448  1.00 94.53    -0.107 N 
ATOM     18  CA  SER A 101      12.406   3.303  51.001  1.00 47.65     0.219 C 
ATOM     19  CB  SER A 101      13.190   3.322  52.316  1.00 49.57     0.216 C 
ATOM     20  OG  SER A 101      14.448   3.973  52.250  1.00 54.41    -0.218 OA
ATOM     21  CA  VAL A 102      10.122   0.251  50.319  1.00 45.51     0.186 C 
ATOM     22  CB  VAL A 102       8.740  -0.096  50.947  1.00 49.19     0.032 C 
ATOM     23  CG1 VAL A 102       8.340   0.937  51.997  1.00 48.60     0.003 C 
ATOM     24  CG2 VAL A 102       7.656  -0.202  49.875  1.00 48.10     0.003 C 
ATOM     25  CA  TYR A 105      14.000  -1.737  47.254  1.00 43.40     0.191 C 
ATOM     26  CB  TYR A 105      13.781  -2.368  48.630  1.00 43.23     0.060 C 
ATOM     27  CG  TYR A 105      12.656  -3.380  48.695  1.00 42.60    -0.020 A 
ATOM     28  CD2 TYR A 105      11.366  -2.992  49.044  1.00 43.44    -0.002 A 
ATOM     29  CE2 TYR A 105      10.313  -3.902  49.046  1.00 43.57     0.027 A 
ATOM     30  CZ  TYR A 105      10.537  -5.217  48.676  1.00 47.42     0.131 A 
ATOM     31  OH  TYR A 105       9.483  -6.101  48.668  1.00 47.92    -0.190 OA
ATOM     32  CE1 TYR A 105      11.811  -5.629  48.323  1.00 40.45     0.027 A 
ATOM     33  CD1 TYR A 105      12.858  -4.705  48.313  1.00 42.63    -0.002 A 
ATOM     34  CA  PHE A 106      11.158  -3.179  45.107  1.00 51.18     0.191 C 
ATOM     35  CB  PHE A 106       9.636  -3.197  45.400  1.00 55.17     0.060 C 
ATOM     36  CG  PHE A 106       8.629  -3.454  44.302  1.00 59.28    -0.020 A 
ATOM     37  CD1 PHE A 106       7.262  -3.452  44.573  1.00 63.24    -0.004 A 
ATOM     38  CE1 PHE A 106       6.328  -3.654  43.556  1.00 66.24    -0.000 A 
ATOM     39  CZ  PHE A 106       6.749  -3.771  42.246  1.00 67.24    -0.000 A 
ATOM     40  CE2 PHE A 106       8.094  -3.705  41.946  1.00 68.40    -0.000 A 
ATOM     41  CD2 PHE A 106       9.033  -3.527  42.973  1.00 63.30    -0.004 A 
ATOM     42  CA  TYR A 109      15.002  -5.824  42.359  1.00 44.32     0.191 C 
ATOM     43  CB  TYR A 109      14.401  -6.700  43.474  1.00 43.91     0.060 C 
ATOM     44  CG  TYR A 109      13.975  -8.030  42.894  1.00 41.58    -0.020 A 
ATOM     45  CD1 TYR A 109      13.034  -8.826  43.544  1.00 42.10    -0.002 A 
ATOM     46  CE1 TYR A 109      12.562 -10.008  42.971  1.00 39.95     0.027 A 
ATOM     47  CZ  TYR A 109      13.003 -10.388  41.715  1.00 44.86     0.131 A 
ATOM     48  CE2 TYR A 109      13.921  -9.603  41.038  1.00 40.45     0.027 A 
ATOM     49  OH  TYR A 109      12.549 -11.557  41.158  1.00 45.89    -0.190 OA
ATOM     50  CD2 TYR A 109      14.383  -8.420  41.620  1.00 41.38    -0.002 A 
ATOM     51  CA  MET A 152       7.849  -7.115  43.442  1.00 60.44     0.187 C 
ATOM     52  CB  MET A 152       8.864  -6.222  42.718  1.00 62.10     0.046 C 
ATOM     53  CG  MET A 152      10.164  -6.068  43.459  1.00 64.63     0.060 C 
ATOM     54  SD  MET A 152      10.200  -6.771  45.124  1.00 66.98    -0.139 SA
ATOM     55  CE  MET A 152      11.861  -6.319  45.556  1.00 63.83     0.069 C 
ATOM     56  CA  LEU A 155       6.206  -8.638  48.212  1.00 59.11     0.186 C 
ATOM     57  CB  LEU A 155       7.625  -9.014  47.738  1.00 57.66     0.034 C 
ATOM     58  CG  LEU A 155       8.798  -8.917  48.706  1.00 61.82     0.002 C 
ATOM     59  CD2 LEU A 155      10.110  -8.659  47.977  1.00 63.41     0.000 C 
ATOM     60  CD1 LEU A 155       8.909 -10.193  49.492  1.00 60.03     0.000 C 
ATOM     61  CA  SER A 156       6.509  -4.864  48.930  1.00 56.90     0.219 C 
ATOM     62  CB  SER A 156       6.789  -3.832  47.837  1.00 60.21     0.216 C 
ATOM     63  OG  SER A 156       7.921  -3.010  48.085  1.00 67.39    -0.218 OA
ATOM     64  CA  ASN A 159       6.123  -4.191  54.295  1.00 52.94     0.196 C 
ATOM     65  CB  ASN A 159       7.426  -4.124  53.463  1.00 50.55     0.126 C 
ATOM     66  CG  ASN A 159       8.200  -2.828  53.528  1.00 57.65     0.276 C 
ATOM     67  OD1 ASN A 159       8.734  -2.369  52.529  1.00 61.23    -0.269 OA
ATOM     68  ND2 ASN A 159       8.235  -2.164  54.672  1.00 42.85    -0.107 N 
ATOM     69  CA  THR A 163       5.150  -0.592  59.487  1.00 57.53     0.216 C 
ATOM     70  CB  THR A 163       6.083   0.047  58.432  1.00 61.43     0.184 C 
ATOM     71  OG1 THR A 163       6.160   1.447  58.662  1.00 59.66    -0.221 OA
ATOM     72  CG2 THR A 163       5.622  -0.200  57.004  1.00 57.38     0.038 C 
ATOM     73  CA  LYS A 173      15.330   6.284  63.552  1.00 57.57     0.186 C 
ATOM     74  CB  LYS A 173      16.293   7.171  62.738  1.00 59.52     0.034 C 
ATOM     75  CG  LYS A 173      16.379   6.856  61.251  1.00 65.83     0.005 C 
ATOM     76  CD  LYS A 173      17.826   6.600  60.824  1.00 71.51     0.041 C 
ATOM     77  CE  LYS A 173      18.137   6.971  59.390  1.00 69.08     0.338 C 
ATOM     78  NZ  LYS A 173      19.572   6.776  59.056  1.00 69.29     0.618 N 
ATOM     79  CA  LYS A 174      15.508   2.484  62.776  1.00 51.48     0.186 C 
ATOM     80  CB  LYS A 174      16.296   1.384  63.512  1.00 52.43     0.034 C 
ATOM     81  CG  LYS A 174      17.179   0.482  62.691  1.00 57.02     0.005 C 
ATOM     82  CD  LYS A 174      17.399   1.065  61.296  1.00 61.29     0.041 C 
ATOM     83  CE  LYS A 174      18.421   2.174  61.257  1.00 63.07     0.338 C 
ATOM     84  NZ  LYS A 174      17.857   3.419  60.677  1.00 64.24     0.618 N 
ATOM     85  CA  CYS A 175      12.531   1.156  60.693  1.00 52.05     0.198 C 
ATOM     86  CB  CYS A 175      12.594   0.885  59.188  1.00 52.97     0.103 C 
ATOM     87  SG  CYS A 175      13.459  -0.641  58.727  1.00 58.19    -0.080 SA
ATOM     88  CA  SER A 176      12.543  -2.161  62.656  1.00 47.09     0.219 C 
ATOM     89  CB  SER A 176      13.797  -2.935  63.058  1.00 49.42     0.216 C 
ATOM     90  OG  SER A 176      13.488  -4.137  63.744  1.00 57.35    -0.218 OA
ATOM     91  CA  LYS A 179       7.152  -2.688  62.727  1.00 48.92     0.186 C 
ATOM     92  CB  LYS A 179       8.163  -3.565  61.966  1.00 50.09     0.034 C 
ATOM     93  CG  LYS A 179       8.672  -4.719  62.814  1.00 55.91     0.005 C 
ATOM     94  CD  LYS A 179       9.707  -4.286  63.805  1.00 55.19     0.041 C 
ATOM     95  CE  LYS A 179       9.072  -4.157  65.160  1.00 53.09     0.338 C 
ATOM     96  NZ  LYS A 179       9.554  -5.193  66.110  1.00 49.98     0.618 N 
ATOM     97  CA  HIS A 187      10.766  -8.273  56.477  1.00 45.14     0.192 C 
ATOM     98  CB  HIS A 187      11.101  -7.312  57.639  1.00 44.58     0.082 C 
ATOM     99  CG  HIS A 187       9.973  -6.403  58.024  1.00 46.33     0.082 A 
ATOM    100  ND1 HIS A 187       9.012  -6.018  57.107  1.00 47.66    -0.227 NA
ATOM    101  CE1 HIS A 187       8.183  -5.229  57.768  1.00 45.53     0.199 A 
ATOM    102  NE2 HIS A 187       8.557  -5.080  59.036  1.00 45.13    -0.221 NA
ATOM    103  CD2 HIS A 187       9.696  -5.824  59.213  1.00 46.10     0.116 A 
ATOM    104  CA  VAL A 190      11.268 -10.574  51.763  1.00 49.37     0.186 C 
ATOM    105  CB  VAL A 190      10.556  -9.205  51.945  1.00 53.61     0.032 C 
ATOM    106  CG1 VAL A 190       9.284  -9.327  52.757  1.00 53.25     0.003 C 
ATOM    107  CG2 VAL A 190      11.488  -8.203  52.597  1.00 54.78     0.003 C 
ATOM    108  CA  ASN A 191      15.033 -10.052  52.403  1.00 41.57     0.196 C 
ATOM    109  CB  ASN A 191      15.643  -9.498  53.680  1.00 36.18     0.126 C 
ATOM    110  CG  ASN A 191      16.766 -10.379  54.175  1.00 51.01     0.276 C 
ATOM    111  OD1 ASN A 191      17.934 -10.216  53.816  1.00 48.94    -0.269 OA
ATOM    112  ND2 ASN A 191      16.461 -11.286  55.066  1.00 41.78    -0.107 N 
ATOM    113  CA  CYS A 194      15.509 -10.879  47.360  1.00 42.51     0.198 C 
ATOM    114  CB  CYS A 194      15.406  -9.501  47.992  1.00 42.24     0.103 C 
ATOM    115  SG  CYS A 194      16.595  -9.253  49.333  1.00 47.54    -0.080 SA
ATOM    116  CA  ARG A 256      22.497  -7.543  54.070  1.00 40.71     0.186 C 
ATOM    117  CB  ARG A 256      21.648  -7.737  52.800  1.00 38.64     0.036 C 
ATOM    118  CG  ARG A 256      22.360  -7.240  51.541  1.00 42.53     0.029 C 
ATOM    119  CD  ARG A 256      21.583  -7.561  50.264  1.00 44.33     0.145 C 
ATOM    120  NE  ARG A 256      20.288  -6.887  50.190  1.00 40.66    -0.083 NA
ATOM    121  CZ  ARG A 256      19.119  -7.493  50.359  1.00 52.38     0.782 C 
ATOM    122  NH1 ARG A 256      19.067  -8.791  50.630  1.00 37.43     0.063 N 
ATOM    123  NH2 ARG A 256      17.991  -6.803  50.275  1.00 45.57     0.063 N 
ATOM    124  CA  TYR A 259      22.125  -6.560  59.107  1.00 36.70     0.191 C 
ATOM    125  CB  TYR A 259      22.302  -5.448  58.050  1.00 36.37     0.060 C 
ATOM    126  CG  TYR A 259      20.976  -5.001  57.469  1.00 37.29    -0.020 A 
ATOM    127  CD2 TYR A 259      19.771  -5.395  58.045  1.00 37.84    -0.002 A 
ATOM    128  CE2 TYR A 259      18.548  -4.936  57.550  1.00 39.35     0.027 A 
ATOM    129  CZ  TYR A 259      18.527  -4.045  56.485  1.00 44.59     0.131 A 
ATOM    130  OH  TYR A 259      17.353  -3.565  55.969  1.00 41.50    -0.190 OA
ATOM    131  CE1 TYR A 259      19.715  -3.600  55.936  1.00 38.92     0.027 A 
ATOM    132  CD1 TYR A 259      20.928  -4.071  56.432  1.00 39.21    -0.002 A 
ATOM    133  CA  GLN A 263      16.853  -5.928  62.804  1.00 41.02     0.187 C 
ATOM    134  CB  GLN A 263      16.534  -5.555  61.339  1.00 41.50     0.044 C 
ATOM    135  CG  GLN A 263      15.457  -6.391  60.653  1.00 37.86     0.094 C 
ATOM    136  CD  GLN A 263      14.109  -5.696  60.707  1.00 48.33     0.274 C 
ATOM    137  OE1 GLN A 263      13.965  -4.526  60.327  1.00 42.79    -0.269 OA
ATOM    138  NE2 GLN A 263      13.089  -6.383  61.204  1.00 33.55    -0.107 N 
ATOM    139  CA  PHE A 277      24.046  -0.281  59.829  1.00 37.48     0.191 C 
ATOM    140  CB  PHE A 277      23.381   0.613  60.894  1.00 38.98     0.060 C 
ATOM    141  CG  PHE A 277      22.314  -0.100  61.698  1.00 40.06    -0.020 A 
ATOM    142  CD1 PHE A 277      20.966   0.194  61.516  1.00 41.47    -0.004 A 
ATOM    143  CE1 PHE A 277      19.984  -0.457  62.263  1.00 41.97    -0.000 A 
ATOM    144  CZ  PHE A 277      20.347  -1.400  63.198  1.00 41.82    -0.000 A 
ATOM    145  CE2 PHE A 277      21.675  -1.712  63.392  1.00 44.30    -0.000 A 
ATOM    146  CD2 PHE A 277      22.658  -1.057  62.650  1.00 41.93    -0.004 A 
ATOM    147  CA  LYS A 280      24.627  -1.514  54.783  1.00 38.25     0.186 C 
ATOM    148  CB  LYS A 280      23.432  -2.191  55.492  1.00 39.37     0.034 C 
ATOM    149  CG  LYS A 280      23.386  -3.705  55.440  1.00 48.63     0.005 C 
ATOM    150  CD  LYS A 280      22.531  -4.235  54.295  1.00 43.59     0.041 C 
ATOM    151  CE  LYS A 280      23.198  -3.848  53.000  1.00 39.84     0.338 C 
ATOM    152  NZ  LYS A 280      24.644  -4.138  52.983  1.00 34.79     0.618 N 
ENDMDL
REMARK VINA RESULT:       4.5      2.716      3.991
REMARK  14 active torsions:
REMARK  status: ('A' for Active; 'I' for Inactive)
REMARK    1  A    between atoms: C_3  and  C_21 
REMARK    2  A    between atoms: C_3  and  O_17 
REMARK    3  A    between atoms: C_8  and  N_27 
REMARK    4  A    between atoms: O_12  and  C_20 
REMARK    5  A    between atoms: O_13  and  C_22 
REMARK    6  A    between atoms: O_14  and  P_32 
REMARK    7  A    between atoms: O_15  and  P_33 
REMARK    8  A    between atoms: O_16  and  P_33 
REMARK    9  A    between atoms: O_17  and  P_31 
REMARK   10  A    between atoms: O_18  and  P_31 
REMARK   11  A    between atoms: O_18  and  P_32 
REMARK   12  A    between atoms: C_19  and  N_36 
REMARK   13  A    between atoms: S_37  and  P_31 
REMARK   14  A    between atoms: P_33  and  P_32 
REMARK  4 active torsions:
REMARK  status: ('A' for Active; 'I' for Inactive)
REMARK    1  A    between atoms: CA   and  CB  
REMARK    2  A    between atoms: CB   and  CG  
REMARK    3  A    between atoms: CG   and  CD  
REMARK    4  A    between atoms: CD   and  NE  
REMARK       I    between atoms: NE   and  CZ  
REMARK  2 active torsions:
REMARK  status: ('A' for Active; 'I' for Inactive)
REMARK    5  A    between atoms: CA   and  CB  
REMARK    6  A    between atoms: CB   and  SG  
REMARK  3 active torsions:
REMARK  status: ('A' for Active; 'I' for Inactive)
REMARK    7  A    between atoms: CA   and  CB  
REMARK    8  A    between atoms: CB   and  CG  
REMARK    9  A    between atoms: CG   and  CD  
REMARK  1 active torsions:
REMARK  status: ('A' for Active; 'I' for Inactive)
REMARK   10  A    between atoms: CA   and  CB  
REMARK  1 active torsions:
REMARK  status: ('A' for Active; 'I' for Inactive)
REMARK   11  A    between atoms: CA   and  CB  
REMARK  2 active torsions:
REMARK  status: ('A' for Active; 'I' for Inactive)
REMARK   12  A    between atoms: CA   and  CB  
REMARK   13  A    between atoms: CB   and  CG  
REMARK  2 active torsions:
REMARK  status: ('A' for Active; 'I' for Inactive)
REMARK   14  A    between atoms: CA   and  CB  
REMARK   15  A    between atoms: CB   and  CG  
REMARK  2 active torsions:
REMARK  status: ('A' for Active; 'I' for Inactive)
REMARK   16  A    between atoms: CA   and  CB  
REMARK   17  A    between atoms: CB   and  CG  
REMARK  3 active torsions:
REMARK  status: ('A' for Active; 'I' for Inactive)
REMARK   18  A    between atoms: CA   and  CB  
REMARK   19  A    between atoms: CB   and  CG  
REMARK   20  A    between atoms: CG   and  SD  
REMARK  2 active torsions:
REMARK  status: ('A' for Active; 'I' for Inactive)
REMARK   21  A    between atoms: CA   and  CB  
REMARK   22  A    between atoms: CB   and  CG  
REMARK  1 active torsions:
REMARK  status: ('A' for Active; 'I' for Inactive)
REMARK   23  A    between atoms: CA   and  CB  
REMARK  2 active torsions:
REMARK  status: ('A' for Active; 'I' for Inactive)
REMARK   24  A    between atoms: CA   and  CB  
REMARK   25  A    between atoms: CB   and  CG  
REMARK  1 active torsions:
REMARK  status: ('A' for Active; 'I' for Inactive)
REMARK   26  A    between atoms: CA   and  CB  
REMARK  4 active torsions:
REMARK  status: ('A' for Active; 'I' for Inactive)
REMARK   27  A    between atoms: CA   and  CB  
REMARK   28  A    between atoms: CB   and  CG  
REMARK   29  A    between atoms: CG   and  CD  
REMARK   30  A    between atoms: CD   and  CE  
REMARK  4 active torsions:
REMARK  status: ('A' for Active; 'I' for Inactive)
REMARK   31  A    between atoms: CA   and  CB  
REMARK   32  A    between atoms: CB   and  CG  
REMARK   33  A    between atoms: CG   and  CD  
REMARK   34  A    between atoms: CD   and  CE  
REMARK  2 active torsions:
REMARK  status: ('A' for Active; 'I' for Inactive)
REMARK   35  A    between atoms: CA   and  CB  
REMARK   36  A    between atoms: CB   and  SG  
REMARK  1 active torsions:
REMARK  status: ('A' for Active; 'I' for Inactive)
REMARK   37  A    between atoms: CA   and  CB  
REMARK  4 active torsions:
REMARK  status: ('A' for Active; 'I' for Inactive)
REMARK   38  A    between atoms: CA   and  CB  
REMARK   39  A    between atoms: CB   and  CG  
REMARK   40  A    between atoms: CG   and  CD  
REMARK   41  A    between atoms: CD   and  CE  
REMARK  2 active torsions:
REMARK  status: ('A' for Active; 'I' for Inactive)
REMARK   42  A    between atoms: CA   and  CB  
REMARK   43  A    between atoms: CB   and  CG  
REMARK  1 active torsions:
REMARK  status: ('A' for Active; 'I' for Inactive)
REMARK   44  A    between atoms: CA   and  CB  
REMARK  2 active torsions:
REMARK  status: ('A' for Active; 'I' for Inactive)
REMARK   45  A    between atoms: CA   and  CB  
REMARK   46  A    between atoms: CB   and  CG  
REMARK  1 active torsions:
REMARK  status: ('A' for Active; 'I' for Inactive)
REMARK   47  A    between atoms: CA   and  CB  
REMARK  4 active torsions:
REMARK  status: ('A' for Active; 'I' for Inactive)
REMARK   48  A    between atoms: CA   and  CB  
REMARK   49  A    between atoms: CB   and  CG  
REMARK   50  A    between atoms: CG   and  CD  
REMARK   51  A    between atoms: CD   and  NE  
REMARK       I    between atoms: NE   and  CZ  
REMARK  2 active torsions:
REMARK  status: ('A' for Active; 'I' for Inactive)
REMARK   52  A    between atoms: CA   and  CB  
REMARK   53  A    between atoms: CB   and  CG  
REMARK  3 active torsions:
REMARK  status: ('A' for Active; 'I' for Inactive)
REMARK   54  A    between atoms: CA   and  CB  
REMARK   55  A    between atoms: CB   and  CG  
REMARK   56  A    between atoms: CG   and  CD  
REMARK  2 active torsions:
REMARK  status: ('A' for Active; 'I' for Inactive)
REMARK   57  A    between atoms: CA   and  CB  
REMARK   58  A    between atoms: CB   and  CG  
REMARK  4 active torsions:
REMARK  status: ('A' for Active; 'I' for Inactive)
REMARK   59  A    between atoms: CA   and  CB  
REMARK   60  A    between atoms: CB   and  CG  
REMARK   61  A    between atoms: CG   and  CD  
REMARK   62  A    between atoms: CD   and  CE  
REMARK viewdock state: D
ATOM      1  C   LIG d 111      15.984   5.137  54.145  0.00  0.00     0.434 A 
ATOM      2  C   LIG d 111      16.958   2.708  50.651  0.00  0.00     0.230 A 
ATOM      3  C   LIG d 111      15.899   4.773  50.639  0.00  0.00     0.152 A 
ATOM      4  N   LIG d 111      17.149   2.610  51.986  0.00  0.00    -0.173 NA
ATOM      5  N   LIG d 111      15.614   5.678  53.002  0.00  0.00    -0.182 NA
ATOM      6  N   LIG d 111      16.370   3.705  49.957  0.00  0.00    -0.218 NA
ATOM      7  C   LIG d 111      16.641   3.685  52.616  0.00  0.00     0.339 A 
ATOM      8  C   LIG d 111      16.017   4.779  52.039  0.00  0.00     0.201 A 
ATOM      9  N   LIG d 111      16.632   3.943  53.961  0.00  0.00    -0.132 N 
ATOM     10  C   LIG d 111      17.163   3.068  54.992  0.00  0.00     0.443 C 
ATOM     11  O   LIG d 111      16.171   2.074  55.327  0.00  0.00    -0.309 OA
ATOM     12  C   LIG d 111      16.119   1.942  56.767  0.00  0.00     0.182 C 
ATOM     13  C   LIG d 111      17.336   2.675  57.314  0.00  0.00     0.183 C 
ATOM     14  C   LIG d 111      17.508   3.790  56.301  0.00  0.00     0.244 C 
ATOM     15  C   LIG d 111      16.057   0.463  57.136  0.00  0.00     0.203 C 
ATOM     16  O   LIG d 111      14.697   0.031  57.089  0.00  0.00    -0.321 OA
ATOM     17  P   LIG d 111      14.305  -1.267  56.187  0.00  0.00     0.234 P 
ATOM     18  S   LIG d 111      15.870  -2.107  55.394  0.00  0.00     0.003 SA
ATOM     19  O   LIG d 111      13.457  -0.475  55.065  0.00  0.00    -0.238 OA
ATOM     20  P   LIG d 111      12.178  -1.061  54.292  0.00  0.00     0.445 P 
ATOM     21  O   LIG d 111      10.936  -0.879  55.123  0.00  0.00    -0.245 OA
ATOM     22  O   LIG d 111      12.089   0.001  53.065  0.00  0.00    -0.316 OA
ATOM     23  H   LIG d 111      11.162   0.234  52.867  0.00  0.00     0.220 HD
ATOM     24  P   LIG d 111      12.468  -3.298  53.521  0.00  0.00     0.438 P 
ATOM     25  O   LIG d 111      13.900  -3.744  53.580  0.00  0.00    -0.246 OA
ATOM     26  O   LIG d 111      11.884  -3.547  52.037  0.00  0.00    -0.316 OA
ATOM     27  H   LIG d 111      11.779  -4.505  51.873  0.00  0.00     0.220 HD
ATOM     28  O   LIG d 111      11.513  -4.353  54.295  0.00  0.00    -0.316 OA
ATOM     29  H   LIG d 111      11.936  -5.212  54.480  0.00  0.00     0.220 HD
ATOM     30  S   LIG d  11      12.950  -2.374  57.348  0.00  0.00    -0.091 SA
ATOM     31  H   LIG d  11      12.006  -1.426  57.399  0.00  0.00     0.111 HD
ATOM     32  O   LIG d 111      18.501   1.844  57.311  0.00  0.00    -0.386 OA
ATOM     33  H   LIG d 111      18.286   1.102  56.707  0.00  0.00     0.210 HD
ATOM     34  O   LIG d 111      18.840   4.300  56.364  0.00  0.00    -0.380 OA
ATOM     35  H   LIG d 111      18.760   5.280  56.374  0.00  0.00     0.210 HD
ATOM     36  N   LIG d 111      15.300   5.800  49.921  0.00  0.00    -0.341 NA
ATOM     37  H   LIG d 111      14.323   5.935  50.160  0.00  0.00     0.144 HD
ATOM     38  H   LIG d 111      15.538   5.764  48.938  0.00  0.00     0.144 HD
ATOM      1  CA  ARG A  93      11.357   9.429  58.493  1.00 59.89     0.186 C 
ATOM      2  CB  ARG A  93      12.236   9.564  59.757  1.00 58.23     0.036 C 
ATOM      3  CG  ARG A  93      11.492   9.905  61.062  1.00 60.51     0.029 C 
ATOM      4  CD  ARG A  93      10.547   8.814  61.563  1.00 61.21     0.145 C 
ATOM      5  NE  ARG A  93      11.242   7.532  61.701  1.00 60.36    -0.083 NA
ATOM      6  CZ  ARG A  93      10.931   6.583  62.580  1.00 66.21     0.782 C 
ATOM      7  NH2 ARG A  93      11.626   5.457  62.620  1.00 48.93     0.063 N 
ATOM      8  NH1 ARG A  93       9.926   6.757  63.432  1.00 52.54     0.063 N 
ATOM      9  CA  CYS A  97      10.408   3.635  56.475  1.00 55.45     0.198 C 
ATOM     10  CB  CYS A  97      10.309   3.703  57.996  1.00 56.61     0.103 C 
ATOM     11  SG  CYS A  97       8.666   3.326  58.653  1.00 59.92    -0.080 SA
ATOM     12  CA  GLN A  98       6.821   2.814  55.435  1.00 57.21     0.187 C 
ATOM     13  CB  GLN A  98       5.702   3.596  56.134  1.00 60.72     0.044 C 
ATOM     14  CG  GLN A  98       5.153   4.815  55.414  1.00 78.15     0.094 C 
ATOM     15  CD  GLN A  98       4.786   5.917  56.378  1.00 97.60     0.274 C 
ATOM     16  OE1 GLN A  98       5.175   5.924  57.556  1.00 90.91    -0.269 OA
ATOM     17  NE2 GLN A  98       4.017   6.877  55.893  1.00 94.53    -0.107 N 
ATOM     18  CA  SER A 101      12.406   3.303  51.001  1.00 47.65     0.219 C 
ATOM     19  CB  SER A 101      13.190   3.322  52.316  1.00 49.57     0.216 C 
ATOM     20  OG  SER A 101      14.039   2.204  52.519  1.00 54.41    -0.218 OA
ATOM     21  CA  VAL A 102      10.122   0.251  50.319  1.00 45.51     0.186 C 
ATOM     22  CB  VAL A 102       8.740  -0.096  50.947  1.00 49.19     0.032 C 
ATOM     23  CG1 VAL A 102       8.572   0.574  52.308  1.00 48.60     0.003 C 
ATOM     24  CG2 VAL A 102       7.594   0.305  50.019  1.00 48.10     0.003 C 
ATOM     25  CA  TYR A 105      14.000  -1.737  47.254  1.00 43.40     0.191 C 
ATOM     26  CB  TYR A 105      13.781  -2.368  48.630  1.00 43.23     0.060 C 
ATOM     27  CG  TYR A 105      13.411  -3.836  48.606  1.00 42.60    -0.020 A 
ATOM     28  CD2 TYR A 105      14.369  -4.818  48.836  1.00 43.44    -0.002 A 
ATOM     29  CE2 TYR A 105      14.027  -6.167  48.878  1.00 43.57     0.027 A 
ATOM     30  CZ  TYR A 105      12.708  -6.550  48.708  1.00 47.42     0.131 A 
ATOM     31  OH  TYR A 105      12.383  -7.885  48.767  1.00 47.92    -0.190 OA
ATOM     32  CE1 TYR A 105      11.735  -5.592  48.478  1.00 40.45     0.027 A 
ATOM     33  CD1 TYR A 105      12.086  -4.241  48.450  1.00 42.63    -0.002 A 
ATOM     34  CA  PHE A 106      11.158  -3.179  45.107  1.00 51.18     0.191 C 
ATOM     35  CB  PHE A 106       9.636  -3.197  45.400  1.00 55.17     0.060 C 
ATOM     36  CG  PHE A 106       9.108  -3.082  46.812  1.00 59.28    -0.020 A 
ATOM     37  CD1 PHE A 106       9.537  -3.958  47.808  1.00 63.24    -0.004 A 
ATOM     38  CE1 PHE A 106       9.078  -3.834  49.120  1.00 66.24    -0.000 A 
ATOM     39  CZ  PHE A 106       8.258  -2.779  49.466  1.00 67.24    -0.000 A 
ATOM     40  CE2 PHE A 106       7.877  -1.859  48.512  1.00 68.40    -0.000 A 
ATOM     41  CD2 PHE A 106       8.319  -2.000  47.188  1.00 63.30    -0.004 A 
ATOM     42  CA  TYR A 109      15.002  -5.824  42.359  1.00 44.32     0.191 C 
ATOM     43  CB  TYR A 109      14.401  -6.700  43.474  1.00 43.91     0.060 C 
ATOM     44  CG  TYR A 109      13.827  -7.962  42.868  1.00 41.58    -0.020 A 
ATOM     45  CD1 TYR A 109      14.159  -8.348  41.572  1.00 42.10    -0.002 A 
ATOM     46  CE1 TYR A 109      13.713  -9.558  41.038  1.00 39.95     0.027 A 
ATOM     47  CZ  TYR A 109      12.955 -10.416  41.816  1.00 44.86     0.131 A 
ATOM     48  CE2 TYR A 109      12.629 -10.065  43.115  1.00 40.45     0.027 A 
ATOM     49  OH  TYR A 109      12.504 -11.598  41.285  1.00 45.89    -0.190 OA
ATOM     50  CD2 TYR A 109      13.085  -8.854  43.640  1.00 41.38    -0.002 A 
ATOM     51  CA  MET A 152       7.849  -7.115  43.442  1.00 60.44     0.187 C 
ATOM     52  CB  MET A 152       8.864  -6.222  42.718  1.00 62.10     0.046 C 
ATOM     53  CG  MET A 152      10.046  -5.845  43.569  1.00 64.63     0.060 C 
ATOM     54  SD  MET A 152      10.306  -6.865  45.038  1.00 66.98    -0.139 SA
ATOM     55  CE  MET A 152      11.904  -6.247  45.499  1.00 63.83     0.069 C 
ATOM     56  CA  LEU A 155       6.206  -8.638  48.212  1.00 59.11     0.186 C 
ATOM     57  CB  LEU A 155       7.625  -9.014  47.738  1.00 57.66     0.034 C 
ATOM     58  CG  LEU A 155       8.826  -8.222  48.239  1.00 61.82     0.002 C 
ATOM     59  CD2 LEU A 155       9.147  -7.046  47.326  1.00 63.41     0.000 C 
ATOM     60  CD1 LEU A 155      10.024  -9.125  48.325  1.00 60.03     0.000 C 
ATOM     61  CA  SER A 156       6.509  -4.864  48.930  1.00 56.90     0.219 C 
ATOM     62  CB  SER A 156       6.789  -3.832  47.837  1.00 60.21     0.216 C 
ATOM     63  OG  SER A 156       6.137  -4.096  46.603  1.00 67.39    -0.218 OA
ATOM     64  CA  ASN A 159       6.123  -4.191  54.295  1.00 52.94     0.196 C 
ATOM     65  CB  ASN A 159       7.426  -4.124  53.463  1.00 50.55     0.126 C 
ATOM     66  CG  ASN A 159       8.407  -3.036  53.835  1.00 57.65     0.276 C 
ATOM     67  OD1 ASN A 159       9.300  -2.712  53.066  1.00 61.23    -0.269 OA
ATOM     68  ND2 ASN A 159       8.242  -2.394  54.980  1.00 42.85    -0.107 N 
ATOM     69  CA  THR A 163       5.150  -0.592  59.487  1.00 57.53     0.216 C 
ATOM     70  CB  THR A 163       6.083   0.047  58.432  1.00 61.43     0.184 C 
ATOM     71  OG1 THR A 163       7.427  -0.316  58.715  1.00 59.66    -0.221 OA
ATOM     72  CG2 THR A 163       5.975   1.564  58.384  1.00 57.38     0.038 C 
ATOM     73  CA  LYS A 173      15.330   6.284  63.552  1.00 57.57     0.186 C 
ATOM     74  CB  LYS A 173      16.293   7.171  62.738  1.00 59.52     0.034 C 
ATOM     75  CG  LYS A 173      16.442   6.803  61.268  1.00 65.83     0.005 C 
ATOM     76  CD  LYS A 173      17.850   6.279  60.971  1.00 71.51     0.041 C 
ATOM     77  CE  LYS A 173      18.051   4.808  61.263  1.00 69.08     0.338 C 
ATOM     78  NZ  LYS A 173      18.089   3.988  60.024  1.00 69.29     0.618 N 
ATOM     79  CA  LYS A 174      15.508   2.484  62.776  1.00 51.48     0.186 C 
ATOM     80  CB  LYS A 174      16.296   1.384  63.512  1.00 52.43     0.034 C 
ATOM     81  CG  LYS A 174      16.282  -0.003  62.926  1.00 57.02     0.005 C 
ATOM     82  CD  LYS A 174      17.553  -0.260  62.117  1.00 61.29     0.041 C 
ATOM     83  CE  LYS A 174      18.276  -1.525  62.511  1.00 63.07     0.338 C 
ATOM     84  NZ  LYS A 174      17.445  -2.378  63.397  1.00 64.24     0.618 N 
ATOM     85  CA  CYS A 175      12.531   1.156  60.693  1.00 52.05     0.198 C 
ATOM     86  CB  CYS A 175      12.594   0.885  59.188  1.00 52.97     0.103 C 
ATOM     87  SG  CYS A 175      11.082   0.177  58.481  1.00 58.19    -0.080 SA
ATOM     88  CA  SER A 176      12.543  -2.161  62.656  1.00 47.09     0.219 C 
ATOM     89  CB  SER A 176      13.797  -2.935  63.058  1.00 49.42     0.216 C 
ATOM     90  OG  SER A 176      13.505  -4.010  63.936  1.00 57.35    -0.218 OA
ATOM     91  CA  LYS A 179       7.152  -2.688  62.727  1.00 48.92     0.186 C 
ATOM     92  CB  LYS A 179       8.163  -3.565  61.966  1.00 50.09     0.034 C 
ATOM     93  CG  LYS A 179       7.478  -4.633  61.129  1.00 55.91     0.005 C 
ATOM     94  CD  LYS A 179       6.644  -4.051  60.031  1.00 55.19     0.041 C 
ATOM     95  CE  LYS A 179       6.415  -5.094  58.976  1.00 53.09     0.338 C 
ATOM     96  NZ  LYS A 179       6.391  -4.516  57.608  1.00 49.98     0.618 N 
ATOM     97  CA  HIS A 187      10.766  -8.273  56.477  1.00 45.14     0.192 C 
ATOM     98  CB  HIS A 187      11.101  -7.312  57.639  1.00 44.58     0.082 C 
ATOM     99  CG  HIS A 187      11.816  -7.964  58.784  1.00 46.33     0.082 A 
ATOM    100  ND1 HIS A 187      11.670  -7.505  60.080  1.00 47.66    -0.227 NA
ATOM    101  CE1 HIS A 187      12.426  -8.292  60.825  1.00 45.53     0.199 A 
ATOM    102  NE2 HIS A 187      13.047  -9.210  60.091  1.00 45.13    -0.221 NA
ATOM    103  CD2 HIS A 187      12.667  -9.014  58.788  1.00 46.10     0.116 A 
ATOM    104  CA  VAL A 190      11.268 -10.574  51.763  1.00 49.37     0.186 C 
ATOM    105  CB  VAL A 190      10.556  -9.205  51.945  1.00 53.61     0.032 C 
ATOM    106  CG1 VAL A 190       9.262  -9.334  52.721  1.00 53.25     0.003 C 
ATOM    107  CG2 VAL A 190      11.473  -8.216  52.636  1.00 54.78     0.003 C 
ATOM    108  CA  ASN A 191      15.033 -10.052  52.403  1.00 41.57     0.196 C 
ATOM    109  CB  ASN A 191      15.643  -9.498  53.680  1.00 36.18     0.126 C 
ATOM    110  CG  ASN A 191      16.506 -10.532  54.365  1.00 51.01     0.276 C 
ATOM    111  OD1 ASN A 191      17.717 -10.621  54.151  1.00 48.94    -0.269 OA
ATOM    112  ND2 ASN A 191      15.927 -11.289  55.260  1.00 41.78    -0.107 N 
ATOM    113  CA  CYS A 194      15.509 -10.879  47.360  1.00 42.51     0.198 C 
ATOM    114  CB  CYS A 194      15.406  -9.501  47.992  1.00 42.24     0.103 C 
ATOM    115  SG  CYS A 194      16.544  -9.279  49.381  1.00 47.54    -0.080 SA
ATOM    116  CA  ARG A 256      22.497  -7.543  54.070  1.00 40.71     0.186 C 
ATOM    117  CB  ARG A 256      21.648  -7.737  52.800  1.00 38.64     0.036 C 
ATOM    118  CG  ARG A 256      21.381  -9.212  52.497  1.00 42.53     0.029 C 
ATOM    119  CD  ARG A 256      19.890  -9.551  52.507  1.00 44.33     0.145 C 
ATOM    120  NE  ARG A 256      19.043  -8.450  52.052  1.00 40.66    -0.083 NA
ATOM    121  CZ  ARG A 256      18.885  -8.103  50.780  1.00 52.38     0.782 C 
ATOM    122  NH1 ARG A 256      19.502  -8.778  49.818  1.00 37.43     0.063 N 
ATOM    123  NH2 ARG A 256      18.095  -7.091  50.457  1.00 45.57     0.063 N 
ATOM    124  CA  TYR A 259      22.125  -6.560  59.107  1.00 36.70     0.191 C 
ATOM    125  CB  TYR A 259      22.302  -5.448  58.050  1.00 36.37     0.060 C 
ATOM    126  CG  TYR A 259      20.972  -4.958  57.515  1.00 37.29    -0.020 A 
ATOM    127  CD2 TYR A 259      20.904  -4.188  56.357  1.00 37.84    -0.002 A 
ATOM    128  CE2 TYR A 259      19.677  -3.785  55.826  1.00 39.35     0.027 A 
ATOM    129  CZ  TYR A 259      18.497  -4.184  56.441  1.00 44.59     0.131 A 
ATOM    130  OH  TYR A 259      17.271  -3.817  55.954  1.00 41.50    -0.190 OA
ATOM    131  CE1 TYR A 259      18.543  -4.994  57.559  1.00 38.92     0.027 A 
ATOM    132  CD1 TYR A 259      19.773  -5.382  58.085  1.00 39.21    -0.002 A 
ATOM    133  CA  GLN A 263      16.853  -5.928  62.804  1.00 41.02     0.187 C 
ATOM    134  CB  GLN A 263      16.534  -5.555  61.339  1.00 41.50     0.044 C 
ATOM    135  CG  GLN A 263      15.326  -6.250  60.717  1.00 37.86     0.094 C 
ATOM    136  CD  GLN A 263      14.112  -5.340  60.719  1.00 48.33     0.274 C 
ATOM    137  OE1 GLN A 263      14.095  -4.278  60.083  1.00 42.79    -0.269 OA
ATOM    138  NE2 GLN A 263      13.071  -5.715  61.452  1.00 33.55    -0.107 N 
ATOM    139  CA  PHE A 277      24.046  -0.281  59.829  1.00 37.48     0.191 C 
ATOM    140  CB  PHE A 277      23.381   0.613  60.894  1.00 38.98     0.060 C 
ATOM    141  CG  PHE A 277      22.689  -0.169  61.991  1.00 40.06    -0.020 A 
ATOM    142  CD1 PHE A 277      21.651  -1.049  61.695  1.00 41.47    -0.004 A 
ATOM    143  CE1 PHE A 277      21.009  -1.762  62.707  1.00 41.97    -0.000 A 
ATOM    144  CZ  PHE A 277      21.398  -1.596  64.017  1.00 41.82    -0.000 A 
ATOM    145  CE2 PHE A 277      22.427  -0.736  64.333  1.00 44.30    -0.000 A 
ATOM    146  CD2 PHE A 277      23.066  -0.017  63.322  1.00 41.93    -0.004 A 
ATOM    147  CA  LYS A 280      24.627  -1.514  54.783  1.00 38.25     0.186 C 
ATOM    148  CB  LYS A 280      23.432  -2.191  55.492  1.00 39.37     0.034 C 
ATOM    149  CG  LYS A 280      23.342  -3.699  55.371  1.00 48.63     0.005 C 
ATOM    150  CD  LYS A 280      24.171  -4.254  54.219  1.00 43.59     0.041 C 
ATOM    151  CE  LYS A 280      23.325  -4.207  52.973  1.00 39.84     0.338 C 
ATOM    152  NZ  LYS A 280      21.880  -4.118  53.257  1.00 34.79     0.618 N 
ENDMDL
REMARK VINA RESULT:       4.6      1.747      2.463
REMARK  14 active torsions:
REMARK  status: ('A' for Active; 'I' for Inactive)
REMARK    1  A    between atoms: C_3  and  C_21 
REMARK    2  A    between atoms: C_3  and  O_17 
REMARK    3  A    between atoms: C_8  and  N_27 
REMARK    4  A    between atoms: O_12  and  C_20 
REMARK    5  A    between atoms: O_13  and  C_22 
REMARK    6  A    between atoms: O_14  and  P_32 
REMARK    7  A    between atoms: O_15  and  P_33 
REMARK    8  A    between atoms: O_16  and  P_33 
REMARK    9  A    between atoms: O_17  and  P_31 
REMARK   10  A    between atoms: O_18  and  P_31 
REMARK   11  A    between atoms: O_18  and  P_32 
REMARK   12  A    between atoms: C_19  and  N_36 
REMARK   13  A    between atoms: S_37  and  P_31 
REMARK   14  A    between atoms: P_33  and  P_32 
REMARK  4 active torsions:
REMARK  status: ('A' for Active; 'I' for Inactive)
REMARK    1  A    between atoms: CA   and  CB  
REMARK    2  A    between atoms: CB   and  CG  
REMARK    3  A    between atoms: CG   and  CD  
REMARK    4  A    between atoms: CD   and  NE  
REMARK       I    between atoms: NE   and  CZ  
REMARK  2 active torsions:
REMARK  status: ('A' for Active; 'I' for Inactive)
REMARK    5  A    between atoms: CA   and  CB  
REMARK    6  A    between atoms: CB   and  SG  
REMARK  3 active torsions:
REMARK  status: ('A' for Active; 'I' for Inactive)
REMARK    7  A    between atoms: CA   and  CB  
REMARK    8  A    between atoms: CB   and  CG  
REMARK    9  A    between atoms: CG   and  CD  
REMARK  1 active torsions:
REMARK  status: ('A' for Active; 'I' for Inactive)
REMARK   10  A    between atoms: CA   and  CB  
REMARK  1 active torsions:
REMARK  status: ('A' for Active; 'I' for Inactive)
REMARK   11  A    between atoms: CA   and  CB  
REMARK  2 active torsions:
REMARK  status: ('A' for Active; 'I' for Inactive)
REMARK   12  A    between atoms: CA   and  CB  
REMARK   13  A    between atoms: CB   and  CG  
REMARK  2 active torsions:
REMARK  status: ('A' for Active; 'I' for Inactive)
REMARK   14  A    between atoms: CA   and  CB  
REMARK   15  A    between atoms: CB   and  CG  
REMARK  2 active torsions:
REMARK  status: ('A' for Active; 'I' for Inactive)
REMARK   16  A    between atoms: CA   and  CB  
REMARK   17  A    between atoms: CB   and  CG  
REMARK  3 active torsions:
REMARK  status: ('A' for Active; 'I' for Inactive)
REMARK   18  A    between atoms: CA   and  CB  
REMARK   19  A    between atoms: CB   and  CG  
REMARK   20  A    between atoms: CG   and  SD  
REMARK  2 active torsions:
REMARK  status: ('A' for Active; 'I' for Inactive)
REMARK   21  A    between atoms: CA   and  CB  
REMARK   22  A    between atoms: CB   and  CG  
REMARK  1 active torsions:
REMARK  status: ('A' for Active; 'I' for Inactive)
REMARK   23  A    between atoms: CA   and  CB  
REMARK  2 active torsions:
REMARK  status: ('A' for Active; 'I' for Inactive)
REMARK   24  A    between atoms: CA   and  CB  
REMARK   25  A    between atoms: CB   and  CG  
REMARK  1 active torsions:
REMARK  status: ('A' for Active; 'I' for Inactive)
REMARK   26  A    between atoms: CA   and  CB  
REMARK  4 active torsions:
REMARK  status: ('A' for Active; 'I' for Inactive)
REMARK   27  A    between atoms: CA   and  CB  
REMARK   28  A    between atoms: CB   and  CG  
REMARK   29  A    between atoms: CG   and  CD  
REMARK   30  A    between atoms: CD   and  CE  
REMARK  4 active torsions:
REMARK  status: ('A' for Active; 'I' for Inactive)
REMARK   31  A    between atoms: CA   and  CB  
REMARK   32  A    between atoms: CB   and  CG  
REMARK   33  A    between atoms: CG   and  CD  
REMARK   34  A    between atoms: CD   and  CE  
REMARK  2 active torsions:
REMARK  status: ('A' for Active; 'I' for Inactive)
REMARK   35  A    between atoms: CA   and  CB  
REMARK   36  A    between atoms: CB   and  SG  
REMARK  1 active torsions:
REMARK  status: ('A' for Active; 'I' for Inactive)
REMARK   37  A    between atoms: CA   and  CB  
REMARK  4 active torsions:
REMARK  status: ('A' for Active; 'I' for Inactive)
REMARK   38  A    between atoms: CA   and  CB  
REMARK   39  A    between atoms: CB   and  CG  
REMARK   40  A    between atoms: CG   and  CD  
REMARK   41  A    between atoms: CD   and  CE  
REMARK  2 active torsions:
REMARK  status: ('A' for Active; 'I' for Inactive)
REMARK   42  A    between atoms: CA   and  CB  
REMARK   43  A    between atoms: CB   and  CG  
REMARK  1 active torsions:
REMARK  status: ('A' for Active; 'I' for Inactive)
REMARK   44  A    between atoms: CA   and  CB  
REMARK  2 active torsions:
REMARK  status: ('A' for Active; 'I' for Inactive)
REMARK   45  A    between atoms: CA   and  CB  
REMARK   46  A    between atoms: CB   and  CG  
REMARK  1 active torsions:
REMARK  status: ('A' for Active; 'I' for Inactive)
REMARK   47  A    between atoms: CA   and  CB  
REMARK  4 active torsions:
REMARK  status: ('A' for Active; 'I' for Inactive)
REMARK   48  A    between atoms: CA   and  CB  
REMARK   49  A    between atoms: CB   and  CG  
REMARK   50  A    between atoms: CG   and  CD  
REMARK   51  A    between atoms: CD   and  NE  
REMARK       I    between atoms: NE   and  CZ  
REMARK  2 active torsions:
REMARK  status: ('A' for Active; 'I' for Inactive)
REMARK   52  A    between atoms: CA   and  CB  
REMARK   53  A    between atoms: CB   and  CG  
REMARK  3 active torsions:
REMARK  status: ('A' for Active; 'I' for Inactive)
REMARK   54  A    between atoms: CA   and  CB  
REMARK   55  A    between atoms: CB   and  CG  
REMARK   56  A    between atoms: CG   and  CD  
REMARK  2 active torsions:
REMARK  status: ('A' for Active; 'I' for Inactive)
REMARK   57  A    between atoms: CA   and  CB  
REMARK   58  A    between atoms: CB   and  CG  
REMARK  4 active torsions:
REMARK  status: ('A' for Active; 'I' for Inactive)
REMARK   59  A    between atoms: CA   and  CB  
REMARK   60  A    between atoms: CB   and  CG  
REMARK   61  A    between atoms: CG   and  CD  
REMARK   62  A    between atoms: CD   and  CE  
REMARK viewdock state: D
ATOM      1  C   LIG d 111      15.106  -3.624  54.024  0.00  0.00     0.434 A 
ATOM      2  C   LIG d 111      11.408  -4.071  51.747  0.00  0.00     0.230 A 
ATOM      3  C   LIG d 111      13.113  -5.636  51.925  0.00  0.00     0.152 A 
ATOM      4  N   LIG d 111      11.946  -3.126  52.552  0.00  0.00    -0.173 NA
ATOM      5  N   LIG d 111      15.005  -4.778  53.397  0.00  0.00    -0.182 NA
ATOM      6  N   LIG d 111      11.915  -5.276  51.411  0.00  0.00    -0.218 NA
ATOM      7  C   LIG d 111      13.144  -3.526  53.015  0.00  0.00     0.339 A 
ATOM      8  C   LIG d 111      13.784  -4.728  52.760  0.00  0.00     0.201 A 
ATOM      9  N   LIG d 111      13.993  -2.844  53.846  0.00  0.00    -0.132 N 
ATOM     10  C   LIG d 111      13.764  -1.511  54.376  0.00  0.00     0.443 C 
ATOM     11  O   LIG d 111      14.877  -1.137  55.216  0.00  0.00    -0.309 OA
ATOM     12  C   LIG d 111      14.359  -0.527  56.422  0.00  0.00     0.182 C 
ATOM     13  C   LIG d 111      12.882  -0.254  56.170  0.00  0.00     0.183 C 
ATOM     14  C   LIG d 111      12.508  -1.400  55.250  0.00  0.00     0.244 C 
ATOM     15  C   LIG d 111      15.180   0.716  56.751  0.00  0.00     0.203 C 
ATOM     16  O   LIG d 111      14.904   1.723  55.778  0.00  0.00    -0.321 OA
ATOM     17  P   LIG d 111      16.092   2.742  55.327  0.00  0.00     0.234 P 
ATOM     18  S   LIG d 111      15.428   4.539  54.996  0.00  0.00     0.003 SA
ATOM     19  O   LIG d 111      16.458   2.007  53.936  0.00  0.00    -0.238 OA
ATOM     20  P   LIG d 111      17.596   2.489  52.911  0.00  0.00     0.445 P 
ATOM     21  O   LIG d 111      18.616   3.337  53.623  0.00  0.00    -0.245 OA
ATOM     22  O   LIG d 111      18.303   1.061  52.596  0.00  0.00    -0.316 OA
ATOM     23  H   LIG d 111      19.270   1.110  52.723  0.00  0.00     0.220 HD
ATOM     24  P   LIG d 111      16.735   3.518  50.941  0.00  0.00     0.438 P 
ATOM     25  O   LIG d 111      16.211   4.900  51.199  0.00  0.00    -0.246 OA
ATOM     26  O   LIG d 111      15.603   2.639  50.199  0.00  0.00    -0.316 OA
ATOM     27  H   LIG d 111      15.918   1.722  50.071  0.00  0.00     0.220 HD
ATOM     28  O   LIG d 111      17.807   3.534  49.727  0.00  0.00    -0.316 OA
ATOM     29  H   LIG d 111      17.432   3.808  48.869  0.00  0.00     0.220 HD
ATOM     30  S   LIG d  11      17.673   2.397  56.666  0.00  0.00    -0.091 SA
ATOM     31  H   LIG d  11      18.102   3.665  56.700  0.00  0.00     0.111 HD
ATOM     32  O   LIG d 111      12.681   0.989  55.491  0.00  0.00    -0.386 OA
ATOM     33  H   LIG d 111      13.581   1.352  55.346  0.00  0.00     0.210 HD
ATOM     34  O   LIG d 111      11.315  -1.076  54.535  0.00  0.00    -0.380 OA
ATOM     35  H   LIG d 111      11.422  -1.455  53.634  0.00  0.00     0.210 HD
ATOM     36  N   LIG d 111      13.628  -6.880  51.582  0.00  0.00    -0.341 NA
ATOM     37  H   LIG d 111      13.675  -7.028  50.579  0.00  0.00     0.144 HD
ATOM     38  H   LIG d 111      13.232  -7.622  52.144  0.00  0.00     0.144 HD
ATOM      1  CA  ARG A  93      11.357   9.429  58.493  1.00 59.89     0.186 C 
ATOM      2  CB  ARG A  93      12.236   9.564  59.757  1.00 58.23     0.036 C 
ATOM      3  CG  ARG A  93      11.480   9.665  61.096  1.00 60.51     0.029 C 
ATOM      4  CD  ARG A  93      10.100  10.310  61.003  1.00 61.21     0.145 C 
ATOM      5  NE  ARG A  93       9.427  10.312  62.305  1.00 60.36    -0.083 NA
ATOM      6  CZ  ARG A  93       9.116   9.227  63.008  1.00 66.21     0.782 C 
ATOM      7  NH2 ARG A  93       8.507   9.342  64.179  1.00 48.93     0.063 N 
ATOM      8  NH1 ARG A  93       9.405   8.016  62.542  1.00 52.54     0.063 N 
ATOM      9  CA  CYS A  97      10.408   3.635  56.475  1.00 55.45     0.198 C 
ATOM     10  CB  CYS A  97      10.309   3.703  57.996  1.00 56.61     0.103 C 
ATOM     11  SG  CYS A  97       8.679   3.276  58.657  1.00 59.92    -0.080 SA
ATOM     12  CA  GLN A  98       6.821   2.814  55.435  1.00 57.21     0.187 C 
ATOM     13  CB  GLN A  98       5.702   3.596  56.134  1.00 60.72     0.044 C 
ATOM     14  CG  GLN A  98       5.918   5.085  56.336  1.00 78.15     0.094 C 
ATOM     15  CD  GLN A  98       4.828   5.903  55.688  1.00 97.60     0.274 C 
ATOM     16  OE1 GLN A  98       4.452   5.701  54.523  1.00 90.91    -0.269 OA
ATOM     17  NE2 GLN A  98       4.296   6.854  56.436  1.00 94.53    -0.107 N 
ATOM     18  CA  SER A 101      12.406   3.303  51.001  1.00 47.65     0.219 C 
ATOM     19  CB  SER A 101      13.190   3.322  52.316  1.00 49.57     0.216 C 
ATOM     20  OG  SER A 101      14.026   4.454  52.495  1.00 54.41    -0.218 OA
ATOM     21  CA  VAL A 102      10.122   0.251  50.319  1.00 45.51     0.186 C 
ATOM     22  CB  VAL A 102       8.740  -0.096  50.947  1.00 49.19     0.032 C 
ATOM     23  CG1 VAL A 102       8.572   0.573  52.309  1.00 48.60     0.003 C 
ATOM     24  CG2 VAL A 102       7.594   0.306  50.019  1.00 48.10     0.003 C 
ATOM     25  CA  TYR A 105      14.000  -1.737  47.254  1.00 43.40     0.191 C 
ATOM     26  CB  TYR A 105      13.781  -2.368  48.630  1.00 43.23     0.060 C 
ATOM     27  CG  TYR A 105      13.393  -3.832  48.605  1.00 42.60    -0.020 A 
ATOM     28  CD2 TYR A 105      12.074  -4.217  48.384  1.00 43.44    -0.002 A 
ATOM     29  CE2 TYR A 105      11.718  -5.560  48.297  1.00 43.57     0.027 A 
ATOM     30  CZ  TYR A 105      12.690  -6.540  48.411  1.00 47.42     0.131 A 
ATOM     31  OH  TYR A 105      12.324  -7.862  48.307  1.00 47.92    -0.190 OA
ATOM     32  CE1 TYR A 105      14.009  -6.183  48.631  1.00 40.45     0.027 A 
ATOM     33  CD1 TYR A 105      14.358  -4.833  48.704  1.00 42.63    -0.002 A 
ATOM     34  CA  PHE A 106      11.158  -3.179  45.107  1.00 51.18     0.191 C 
ATOM     35  CB  PHE A 106       9.636  -3.197  45.400  1.00 55.17     0.060 C 
ATOM     36  CG  PHE A 106       9.109  -3.133  46.816  1.00 59.28    -0.020 A 
ATOM     37  CD1 PHE A 106       9.500  -4.076  47.766  1.00 63.24    -0.004 A 
ATOM     38  CE1 PHE A 106       9.043  -4.000  49.082  1.00 66.24    -0.000 A 
ATOM     39  CZ  PHE A 106       8.265  -2.933  49.482  1.00 67.24    -0.000 A 
ATOM     40  CE2 PHE A 106       7.924  -1.950  48.575  1.00 68.40    -0.000 A 
ATOM     41  CD2 PHE A 106       8.363  -2.041  47.246  1.00 63.30    -0.004 A 
ATOM     42  CA  TYR A 109      15.002  -5.824  42.359  1.00 44.32     0.191 C 
ATOM     43  CB  TYR A 109      14.401  -6.700  43.474  1.00 43.91     0.060 C 
ATOM     44  CG  TYR A 109      13.830  -7.963  42.868  1.00 41.58    -0.020 A 
ATOM     45  CD1 TYR A 109      14.167  -8.352  41.574  1.00 42.10    -0.002 A 
ATOM     46  CE1 TYR A 109      13.724  -9.563  41.041  1.00 39.95     0.027 A 
ATOM     47  CZ  TYR A 109      12.963 -10.420  41.818  1.00 44.86     0.131 A 
ATOM     48  CE2 TYR A 109      12.632 -10.066  43.115  1.00 40.45     0.027 A 
ATOM     49  OH  TYR A 109      12.514 -11.604  41.288  1.00 45.89    -0.190 OA
ATOM     50  CD2 TYR A 109      13.085  -8.854  43.639  1.00 41.38    -0.002 A 
ATOM     51  CA  MET A 152       7.849  -7.115  43.442  1.00 60.44     0.187 C 
ATOM     52  CB  MET A 152       8.864  -6.222  42.718  1.00 62.10     0.046 C 
ATOM     53  CG  MET A 152       9.956  -5.706  43.614  1.00 64.63     0.060 C 
ATOM     54  SD  MET A 152      10.287  -6.696  45.090  1.00 66.98    -0.139 SA
ATOM     55  CE  MET A 152      11.948  -6.153  45.395  1.00 63.83     0.069 C 
ATOM     56  CA  LEU A 155       6.206  -8.638  48.212  1.00 59.11     0.186 C 
ATOM     57  CB  LEU A 155       7.625  -9.014  47.738  1.00 57.66     0.034 C 
ATOM     58  CG  LEU A 155       8.689  -7.932  47.600  1.00 61.82     0.002 C 
ATOM     59  CD2 LEU A 155       9.827  -8.375  46.689  1.00 63.41     0.000 C 
ATOM     60  CD1 LEU A 155       9.242  -7.594  48.956  1.00 60.03     0.000 C 
ATOM     61  CA  SER A 156       6.509  -4.864  48.930  1.00 56.90     0.219 C 
ATOM     62  CB  SER A 156       6.789  -3.832  47.837  1.00 60.21     0.216 C 
ATOM     63  OG  SER A 156       6.038  -4.023  46.647  1.00 67.39    -0.218 OA
ATOM     64  CA  ASN A 159       6.123  -4.191  54.295  1.00 52.94     0.196 C 
ATOM     65  CB  ASN A 159       7.426  -4.124  53.463  1.00 50.55     0.126 C 
ATOM     66  CG  ASN A 159       8.370  -2.988  53.781  1.00 57.65     0.276 C 
ATOM     67  OD1 ASN A 159       9.339  -2.764  53.070  1.00 61.23    -0.269 OA
ATOM     68  ND2 ASN A 159       8.092  -2.196  54.804  1.00 42.85    -0.107 N 
ATOM     69  CA  THR A 163       5.150  -0.592  59.487  1.00 57.53     0.216 C 
ATOM     70  CB  THR A 163       6.083   0.047  58.432  1.00 61.43     0.184 C 
ATOM     71  OG1 THR A 163       6.239   1.429  58.721  1.00 59.66    -0.221 OA
ATOM     72  CG2 THR A 163       5.567  -0.110  57.010  1.00 57.38     0.038 C 
ATOM     73  CA  LYS A 173      15.330   6.284  63.552  1.00 57.57     0.186 C 
ATOM     74  CB  LYS A 173      16.293   7.171  62.738  1.00 59.52     0.034 C 
ATOM     75  CG  LYS A 173      16.528   6.737  61.298  1.00 65.83     0.005 C 
ATOM     76  CD  LYS A 173      17.777   5.859  61.183  1.00 71.51     0.041 C 
ATOM     77  CE  LYS A 173      18.337   5.738  59.783  1.00 69.08     0.338 C 
ATOM     78  NZ  LYS A 173      18.260   7.019  59.032  1.00 69.29     0.618 N 
ATOM     79  CA  LYS A 174      15.508   2.484  62.776  1.00 51.48     0.186 C 
ATOM     80  CB  LYS A 174      16.296   1.384  63.512  1.00 52.43     0.034 C 
ATOM     81  CG  LYS A 174      17.213   0.511  62.698  1.00 57.02     0.005 C 
ATOM     82  CD  LYS A 174      16.422  -0.285  61.661  1.00 61.29     0.041 C 
ATOM     83  CE  LYS A 174      16.647   0.176  60.242  1.00 63.07     0.338 C 
ATOM     84  NZ  LYS A 174      17.475   1.408  60.192  1.00 64.24     0.618 N 
ATOM     85  CA  CYS A 175      12.531   1.156  60.693  1.00 52.05     0.198 C 
ATOM     86  CB  CYS A 175      12.594   0.885  59.188  1.00 52.97     0.103 C 
ATOM     87  SG  CYS A 175      12.233  -0.827  58.710  1.00 58.19    -0.080 SA
ATOM     88  CA  SER A 176      12.543  -2.161  62.656  1.00 47.09     0.219 C 
ATOM     89  CB  SER A 176      13.797  -2.935  63.058  1.00 49.42     0.216 C 
ATOM     90  OG  SER A 176      13.488  -4.190  63.642  1.00 57.35    -0.218 OA
ATOM     91  CA  LYS A 179       7.152  -2.688  62.727  1.00 48.92     0.186 C 
ATOM     92  CB  LYS A 179       8.163  -3.565  61.966  1.00 50.09     0.034 C 
ATOM     93  CG  LYS A 179       8.715  -4.685  62.832  1.00 55.91     0.005 C 
ATOM     94  CD  LYS A 179      10.209  -4.655  62.921  1.00 55.19     0.041 C 
ATOM     95  CE  LYS A 179      10.782  -4.440  61.550  1.00 53.09     0.338 C 
ATOM     96  NZ  LYS A 179      10.648  -5.642  60.687  1.00 49.98     0.618 N 
ATOM     97  CA  HIS A 187      10.766  -8.273  56.477  1.00 45.14     0.192 C 
ATOM     98  CB  HIS A 187      11.101  -7.312  57.639  1.00 44.58     0.082 C 
ATOM     99  CG  HIS A 187      10.890  -5.864  57.314  1.00 46.33     0.082 A 
ATOM    100  ND1 HIS A 187      11.327  -4.864  58.163  1.00 47.66    -0.227 NA
ATOM    101  CE1 HIS A 187      10.984  -3.727  57.583  1.00 45.53     0.199 A 
ATOM    102  NE2 HIS A 187      10.352  -3.938  56.431  1.00 45.13    -0.221 NA
ATOM    103  CD2 HIS A 187      10.287  -5.295  56.246  1.00 46.10     0.116 A 
ATOM    104  CA  VAL A 190      11.268 -10.574  51.763  1.00 49.37     0.186 C 
ATOM    105  CB  VAL A 190      10.556  -9.205  51.945  1.00 53.61     0.032 C 
ATOM    106  CG1 VAL A 190       9.141  -9.362  52.460  1.00 53.25     0.003 C 
ATOM    107  CG2 VAL A 190      11.348  -8.313  52.881  1.00 54.78     0.003 C 
ATOM    108  CA  ASN A 191      15.033 -10.052  52.403  1.00 41.57     0.196 C 
ATOM    109  CB  ASN A 191      15.643  -9.498  53.680  1.00 36.18     0.126 C 
ATOM    110  CG  ASN A 191      16.828 -10.325  54.122  1.00 51.01     0.276 C 
ATOM    111  OD1 ASN A 191      17.982 -10.048  53.786  1.00 48.94    -0.269 OA
ATOM    112  ND2 ASN A 191      16.589 -11.314  54.943  1.00 41.78    -0.107 N 
ATOM    113  CA  CYS A 194      15.509 -10.879  47.360  1.00 42.51     0.198 C 
ATOM    114  CB  CYS A 194      15.406  -9.501  47.992  1.00 42.24     0.103 C 
ATOM    115  SG  CYS A 194      16.736  -9.169  49.174  1.00 47.54    -0.080 SA
ATOM    116  CA  ARG A 256      22.497  -7.543  54.070  1.00 40.71     0.186 C 
ATOM    117  CB  ARG A 256      21.648  -7.737  52.800  1.00 38.64     0.036 C 
ATOM    118  CG  ARG A 256      21.971  -9.046  52.078  1.00 42.53     0.029 C 
ATOM    119  CD  ARG A 256      22.527 -10.113  53.021  1.00 44.33     0.145 C 
ATOM    120  NE  ARG A 256      23.640 -10.867  52.449  1.00 40.66    -0.083 NA
ATOM    121  CZ  ARG A 256      24.776 -11.125  53.087  1.00 52.38     0.782 C 
ATOM    122  NH1 ARG A 256      24.957 -10.706  54.334  1.00 37.43     0.063 N 
ATOM    123  NH2 ARG A 256      25.734 -11.819  52.492  1.00 45.57     0.063 N 
ATOM    124  CA  TYR A 259      22.125  -6.560  59.107  1.00 36.70     0.191 C 
ATOM    125  CB  TYR A 259      22.302  -5.448  58.050  1.00 36.37     0.060 C 
ATOM    126  CG  TYR A 259      21.322  -5.594  56.904  1.00 37.29    -0.020 A 
ATOM    127  CD2 TYR A 259      21.490  -4.881  55.720  1.00 37.84    -0.002 A 
ATOM    128  CE2 TYR A 259      20.624  -5.058  54.638  1.00 39.35     0.027 A 
ATOM    129  CZ  TYR A 259      19.594  -5.985  54.727  1.00 44.59     0.131 A 
ATOM    130  OH  TYR A 259      18.723  -6.195  53.691  1.00 41.50    -0.190 OA
ATOM    131  CE1 TYR A 259      19.444  -6.741  55.874  1.00 38.92     0.027 A 
ATOM    132  CD1 TYR A 259      20.309  -6.550  56.949  1.00 39.21    -0.002 A 
ATOM    133  CA  GLN A 263      16.853  -5.928  62.804  1.00 41.02     0.187 C 
ATOM    134  CB  GLN A 263      16.534  -5.555  61.339  1.00 41.50     0.044 C 
ATOM    135  CG  GLN A 263      15.535  -6.457  60.619  1.00 37.86     0.094 C 
ATOM    136  CD  GLN A 263      14.128  -5.897  60.712  1.00 48.33     0.274 C 
ATOM    137  OE1 GLN A 263      13.888  -4.702  60.492  1.00 42.79    -0.269 OA
ATOM    138  NE2 GLN A 263      13.161  -6.734  61.064  1.00 33.55    -0.107 N 
ATOM    139  CA  PHE A 277      24.046  -0.281  59.829  1.00 37.48     0.191 C 
ATOM    140  CB  PHE A 277      23.381   0.613  60.894  1.00 38.98     0.060 C 
ATOM    141  CG  PHE A 277      22.282  -0.086  61.667  1.00 40.06    -0.020 A 
ATOM    142  CD1 PHE A 277      22.580  -1.103  62.570  1.00 41.47    -0.004 A 
ATOM    143  CE1 PHE A 277      21.566  -1.752  63.275  1.00 41.97    -0.000 A 
ATOM    144  CZ  PHE A 277      20.252  -1.390  63.077  1.00 41.82    -0.000 A 
ATOM    145  CE2 PHE A 277      19.935  -0.383  62.193  1.00 44.30    -0.000 A 
ATOM    146  CD2 PHE A 277      20.947   0.264  61.482  1.00 41.93    -0.004 A 
ATOM    147  CA  LYS A 280      24.627  -1.514  54.783  1.00 38.25     0.186 C 
ATOM    148  CB  LYS A 280      23.432  -2.191  55.492  1.00 39.37     0.034 C 
ATOM    149  CG  LYS A 280      23.076  -3.590  55.029  1.00 48.63     0.005 C 
ATOM    150  CD  LYS A 280      23.031  -3.719  53.510  1.00 43.59     0.041 C 
ATOM    151  CE  LYS A 280      24.394  -4.160  53.041  1.00 39.84     0.338 C 
ATOM    152  NZ  LYS A 280      25.069  -3.156  52.198  1.00 34.79     0.618 N 
ENDMDL
REMARK VINA RESULT:       4.9      4.788      6.026
REMARK  14 active torsions:
REMARK  status: ('A' for Active; 'I' for Inactive)
REMARK    1  A    between atoms: C_3  and  C_21 
REMARK    2  A    between atoms: C_3  and  O_17 
REMARK    3  A    between atoms: C_8  and  N_27 
REMARK    4  A    between atoms: O_12  and  C_20 
REMARK    5  A    between atoms: O_13  and  C_22 
REMARK    6  A    between atoms: O_14  and  P_32 
REMARK    7  A    between atoms: O_15  and  P_33 
REMARK    8  A    between atoms: O_16  and  P_33 
REMARK    9  A    between atoms: O_17  and  P_31 
REMARK   10  A    between atoms: O_18  and  P_31 
REMARK   11  A    between atoms: O_18  and  P_32 
REMARK   12  A    between atoms: C_19  and  N_36 
REMARK   13  A    between atoms: S_37  and  P_31 
REMARK   14  A    between atoms: P_33  and  P_32 
REMARK  4 active torsions:
REMARK  status: ('A' for Active; 'I' for Inactive)
REMARK    1  A    between atoms: CA   and  CB  
REMARK    2  A    between atoms: CB   and  CG  
REMARK    3  A    between atoms: CG   and  CD  
REMARK    4  A    between atoms: CD   and  NE  
REMARK       I    between atoms: NE   and  CZ  
REMARK  2 active torsions:
REMARK  status: ('A' for Active; 'I' for Inactive)
REMARK    5  A    between atoms: CA   and  CB  
REMARK    6  A    between atoms: CB   and  SG  
REMARK  3 active torsions:
REMARK  status: ('A' for Active; 'I' for Inactive)
REMARK    7  A    between atoms: CA   and  CB  
REMARK    8  A    between atoms: CB   and  CG  
REMARK    9  A    between atoms: CG   and  CD  
REMARK  1 active torsions:
REMARK  status: ('A' for Active; 'I' for Inactive)
REMARK   10  A    between atoms: CA   and  CB  
REMARK  1 active torsions:
REMARK  status: ('A' for Active; 'I' for Inactive)
REMARK   11  A    between atoms: CA   and  CB  
REMARK  2 active torsions:
REMARK  status: ('A' for Active; 'I' for Inactive)
REMARK   12  A    between atoms: CA   and  CB  
REMARK   13  A    between atoms: CB   and  CG  
REMARK  2 active torsions:
REMARK  status: ('A' for Active; 'I' for Inactive)
REMARK   14  A    between atoms: CA   and  CB  
REMARK   15  A    between atoms: CB   and  CG  
REMARK  2 active torsions:
REMARK  status: ('A' for Active; 'I' for Inactive)
REMARK   16  A    between atoms: CA   and  CB  
REMARK   17  A    between atoms: CB   and  CG  
REMARK  3 active torsions:
REMARK  status: ('A' for Active; 'I' for Inactive)
REMARK   18  A    between atoms: CA   and  CB  
REMARK   19  A    between atoms: CB   and  CG  
REMARK   20  A    between atoms: CG   and  SD  
REMARK  2 active torsions:
REMARK  status: ('A' for Active; 'I' for Inactive)
REMARK   21  A    between atoms: CA   and  CB  
REMARK   22  A    between atoms: CB   and  CG  
REMARK  1 active torsions:
REMARK  status: ('A' for Active; 'I' for Inactive)
REMARK   23  A    between atoms: CA   and  CB  
REMARK  2 active torsions:
REMARK  status: ('A' for Active; 'I' for Inactive)
REMARK   24  A    between atoms: CA   and  CB  
REMARK   25  A    between atoms: CB   and  CG  
REMARK  1 active torsions:
REMARK  status: ('A' for Active; 'I' for Inactive)
REMARK   26  A    between atoms: CA   and  CB  
REMARK  4 active torsions:
REMARK  status: ('A' for Active; 'I' for Inactive)
REMARK   27  A    between atoms: CA   and  CB  
REMARK   28  A    between atoms: CB   and  CG  
REMARK   29  A    between atoms: CG   and  CD  
REMARK   30  A    between atoms: CD   and  CE  
REMARK  4 active torsions:
REMARK  status: ('A' for Active; 'I' for Inactive)
REMARK   31  A    between atoms: CA   and  CB  
REMARK   32  A    between atoms: CB   and  CG  
REMARK   33  A    between atoms: CG   and  CD  
REMARK   34  A    between atoms: CD   and  CE  
REMARK  2 active torsions:
REMARK  status: ('A' for Active; 'I' for Inactive)
REMARK   35  A    between atoms: CA   and  CB  
REMARK   36  A    between atoms: CB   and  SG  
REMARK  1 active torsions:
REMARK  status: ('A' for Active; 'I' for Inactive)
REMARK   37  A    between atoms: CA   and  CB  
REMARK  4 active torsions:
REMARK  status: ('A' for Active; 'I' for Inactive)
REMARK   38  A    between atoms: CA   and  CB  
REMARK   39  A    between atoms: CB   and  CG  
REMARK   40  A    between atoms: CG   and  CD  
REMARK   41  A    between atoms: CD   and  CE  
REMARK  2 active torsions:
REMARK  status: ('A' for Active; 'I' for Inactive)
REMARK   42  A    between atoms: CA   and  CB  
REMARK   43  A    between atoms: CB   and  CG  
REMARK  1 active torsions:
REMARK  status: ('A' for Active; 'I' for Inactive)
REMARK   44  A    between atoms: CA   and  CB  
REMARK  2 active torsions:
REMARK  status: ('A' for Active; 'I' for Inactive)
REMARK   45  A    between atoms: CA   and  CB  
REMARK   46  A    between atoms: CB   and  CG  
REMARK  1 active torsions:
REMARK  status: ('A' for Active; 'I' for Inactive)
REMARK   47  A    between atoms: CA   and  CB  
REMARK  4 active torsions:
REMARK  status: ('A' for Active; 'I' for Inactive)
REMARK   48  A    between atoms: CA   and  CB  
REMARK   49  A    between atoms: CB   and  CG  
REMARK   50  A    between atoms: CG   and  CD  
REMARK   51  A    between atoms: CD   and  NE  
REMARK       I    between atoms: NE   and  CZ  
REMARK  2 active torsions:
REMARK  status: ('A' for Active; 'I' for Inactive)
REMARK   52  A    between atoms: CA   and  CB  
REMARK   53  A    between atoms: CB   and  CG  
REMARK  3 active torsions:
REMARK  status: ('A' for Active; 'I' for Inactive)
REMARK   54  A    between atoms: CA   and  CB  
REMARK   55  A    between atoms: CB   and  CG  
REMARK   56  A    between atoms: CG   and  CD  
REMARK  2 active torsions:
REMARK  status: ('A' for Active; 'I' for Inactive)
REMARK   57  A    between atoms: CA   and  CB  
REMARK   58  A    between atoms: CB   and  CG  
REMARK  4 active torsions:
REMARK  status: ('A' for Active; 'I' for Inactive)
REMARK   59  A    between atoms: CA   and  CB  
REMARK   60  A    between atoms: CB   and  CG  
REMARK   61  A    between atoms: CG   and  CD  
REMARK   62  A    between atoms: CD   and  CE  
REMARK viewdock state: D
ATOM      1  C   LIG d 111      15.212   6.775  49.431  0.00  0.00     0.434 A 
ATOM      2  C   LIG d 111      18.662   4.173  48.816  0.00  0.00     0.230 A 
ATOM      3  C   LIG d 111      17.018   3.920  50.436  0.00  0.00     0.152 A 
ATOM      4  N   LIG d 111      18.156   5.274  48.215  0.00  0.00    -0.173 NA
ATOM      5  N   LIG d 111      15.274   5.768  50.277  0.00  0.00    -0.182 NA
ATOM      6  N   LIG d 111      18.170   3.491  49.872  0.00  0.00    -0.218 NA
ATOM      7  C   LIG d 111      17.026   5.670  48.830  0.00  0.00     0.339 A 
ATOM      8  C   LIG d 111      16.406   5.072  49.914  0.00  0.00     0.201 A 
ATOM      9  N   LIG d 111      16.235   6.744  48.519  0.00  0.00    -0.132 N 
ATOM     10  C   LIG d 111      16.487   7.699  47.454  0.00  0.00     0.443 C 
ATOM     11  O   LIG d 111      17.055   7.006  46.321  0.00  0.00    -0.309 OA
ATOM     12  C   LIG d 111      18.159   7.788  45.809  0.00  0.00     0.182 C 
ATOM     13  C   LIG d 111      18.071   9.154  46.477  0.00  0.00     0.183 C 
ATOM     14  C   LIG d 111      17.489   8.798  47.832  0.00  0.00     0.244 C 
ATOM     15  C   LIG d 111      18.085   7.829  44.286  0.00  0.00     0.203 C 
ATOM     16  O   LIG d 111      19.361   7.478  43.751  0.00  0.00    -0.321 OA
ATOM     17  P   LIG d 111      19.975   8.346  42.518  0.00  0.00     0.234 P 
ATOM     18  S   LIG d 111      20.905   7.228  41.228  0.00  0.00     0.003 SA
ATOM     19  O   LIG d 111      21.030   9.203  43.391  0.00  0.00    -0.238 OA
ATOM     20  P   LIG d 111      22.610   8.931  43.455  0.00  0.00     0.445 P 
ATOM     21  O   LIG d 111      23.210   9.004  42.075  0.00  0.00    -0.245 OA
ATOM     22  O   LIG d 111      23.086  10.264  44.252  0.00  0.00    -0.316 OA
ATOM     23  H   LIG d 111      22.471  10.479  44.979  0.00  0.00     0.220 HD
ATOM     24  P   LIG d 111      23.191   6.934  44.621  0.00  0.00     0.438 P 
ATOM     25  O   LIG d 111      22.060   5.948  44.667  0.00  0.00    -0.246 OA
ATOM     26  O   LIG d 111      23.738   7.200  46.116  0.00  0.00    -0.316 OA
ATOM     27  H   LIG d 111      23.387   6.524  46.729  0.00  0.00     0.220 HD
ATOM     28  O   LIG d 111      24.529   6.236  44.035  0.00  0.00    -0.316 OA
ATOM     29  H   LIG d 111      25.196   6.868  43.707  0.00  0.00     0.220 HD
ATOM     30  S   LIG d  11      18.438   9.646  41.920  0.00  0.00    -0.091 SA
ATOM     31  H   LIG d  11      18.439  10.384  43.038  0.00  0.00     0.111 HD
ATOM     32  O   LIG d 111      17.172  10.026  45.786  0.00  0.00    -0.386 OA
ATOM     33  H   LIG d 111      17.738  10.735  45.412  0.00  0.00     0.210 HD
ATOM     34  O   LIG d 111      16.901   9.957  48.425  0.00  0.00    -0.380 OA
ATOM     35  H   LIG d 111      17.644  10.478  48.804  0.00  0.00     0.210 HD
ATOM     36  N   LIG d 111      16.511   3.212  51.518  0.00  0.00    -0.341 NA
ATOM     37  H   LIG d 111      16.178   3.813  52.264  0.00  0.00     0.144 HD
ATOM     38  H   LIG d 111      17.108   2.436  51.776  0.00  0.00     0.144 HD
ATOM      1  CA  ARG A  93      11.357   9.429  58.493  1.00 59.89     0.186 C 
ATOM      2  CB  ARG A  93      12.236   9.564  59.757  1.00 58.23     0.036 C 
ATOM      3  CG  ARG A  93      11.574   9.152  61.086  1.00 60.51     0.029 C 
ATOM      4  CD  ARG A  93      12.344   8.106  61.887  1.00 61.21     0.145 C 
ATOM      5  NE  ARG A  93      12.016   6.749  61.442  1.00 60.36    -0.083 NA
ATOM      6  CZ  ARG A  93      11.761   5.720  62.245  1.00 66.21     0.782 C 
ATOM      7  NH2 ARG A  93      11.473   4.531  61.736  1.00 48.93     0.063 N 
ATOM      8  NH1 ARG A  93      11.801   5.869  63.565  1.00 52.54     0.063 N 
ATOM      9  CA  CYS A  97      10.408   3.635  56.475  1.00 55.45     0.198 C 
ATOM     10  CB  CYS A  97      10.309   3.703  57.996  1.00 56.61     0.103 C 
ATOM     11  SG  CYS A  97       8.747   3.086  58.669  1.00 59.92    -0.080 SA
ATOM     12  CA  GLN A  98       6.821   2.814  55.435  1.00 57.21     0.187 C 
ATOM     13  CB  GLN A  98       5.702   3.596  56.134  1.00 60.72     0.044 C 
ATOM     14  CG  GLN A  98       5.951   5.068  56.408  1.00 78.15     0.094 C 
ATOM     15  CD  GLN A  98       4.862   5.938  55.830  1.00 97.60     0.274 C 
ATOM     16  OE1 GLN A  98       4.290   6.815  56.496  1.00 90.91    -0.269 OA
ATOM     17  NE2 GLN A  98       4.549   5.709  54.566  1.00 94.53    -0.107 N 
ATOM     18  CA  SER A 101      12.406   3.303  51.001  1.00 47.65     0.219 C 
ATOM     19  CB  SER A 101      13.190   3.322  52.316  1.00 49.57     0.216 C 
ATOM     20  OG  SER A 101      14.057   4.433  52.477  1.00 54.41    -0.218 OA
ATOM     21  CA  VAL A 102      10.122   0.251  50.319  1.00 45.51     0.186 C 
ATOM     22  CB  VAL A 102       8.740  -0.096  50.947  1.00 49.19     0.032 C 
ATOM     23  CG1 VAL A 102       8.592   0.533  52.330  1.00 48.60     0.003 C 
ATOM     24  CG2 VAL A 102       7.593   0.351  50.042  1.00 48.10     0.003 C 
ATOM     25  CA  TYR A 105      14.000  -1.737  47.254  1.00 43.40     0.191 C 
ATOM     26  CB  TYR A 105      13.781  -2.368  48.630  1.00 43.23     0.060 C 
ATOM     27  CG  TYR A 105      13.384  -3.829  48.605  1.00 42.60    -0.020 A 
ATOM     28  CD2 TYR A 105      14.335  -4.830  48.781  1.00 43.44    -0.002 A 
ATOM     29  CE2 TYR A 105      13.972  -6.173  48.822  1.00 43.57     0.027 A 
ATOM     30  CZ  TYR A 105      12.640  -6.532  48.706  1.00 47.42     0.131 A 
ATOM     31  OH  TYR A 105      12.295  -7.862  48.763  1.00 47.92    -0.190 OA
ATOM     32  CE1 TYR A 105      11.674  -5.555  48.529  1.00 40.45     0.027 A 
ATOM     33  CD1 TYR A 105      12.047  -4.210  48.502  1.00 42.63    -0.002 A 
ATOM     34  CA  PHE A 106      11.158  -3.179  45.107  1.00 51.18     0.191 C 
ATOM     35  CB  PHE A 106       9.636  -3.197  45.400  1.00 55.17     0.060 C 
ATOM     36  CG  PHE A 106       9.099  -2.886  46.779  1.00 59.28    -0.020 A 
ATOM     37  CD1 PHE A 106       8.119  -1.912  46.960  1.00 63.24    -0.004 A 
ATOM     38  CE1 PHE A 106       7.596  -1.645  48.226  1.00 66.24    -0.000 A 
ATOM     39  CZ  PHE A 106       7.984  -2.412  49.307  1.00 67.24    -0.000 A 
ATOM     40  CE2 PHE A 106       8.901  -3.428  49.138  1.00 68.40    -0.000 A 
ATOM     41  CD2 PHE A 106       9.444  -3.678  47.869  1.00 63.30    -0.004 A 
ATOM     42  CA  TYR A 109      15.002  -5.824  42.359  1.00 44.32     0.191 C 
ATOM     43  CB  TYR A 109      14.401  -6.700  43.474  1.00 43.91     0.060 C 
ATOM     44  CG  TYR A 109      13.820  -7.958  42.867  1.00 41.58    -0.020 A 
ATOM     45  CD1 TYR A 109      14.168  -8.357  41.579  1.00 42.10    -0.002 A 
ATOM     46  CE1 TYR A 109      13.714  -9.565  41.046  1.00 39.95     0.027 A 
ATOM     47  CZ  TYR A 109      12.932 -10.407  41.817  1.00 44.86     0.131 A 
ATOM     48  CE2 TYR A 109      12.590 -10.043  43.108  1.00 40.45     0.027 A 
ATOM     49  OH  TYR A 109      12.474 -11.587  41.287  1.00 45.89    -0.190 OA
ATOM     50  CD2 TYR A 109      13.053  -8.835  43.633  1.00 41.38    -0.002 A 
ATOM     51  CA  MET A 152       7.849  -7.115  43.442  1.00 60.44     0.187 C 
ATOM     52  CB  MET A 152       8.864  -6.222  42.718  1.00 62.10     0.046 C 
ATOM     53  CG  MET A 152      10.081  -5.906  43.543  1.00 64.63     0.060 C 
ATOM     54  SD  MET A 152      10.151  -6.699  45.166  1.00 66.98    -0.139 SA
ATOM     55  CE  MET A 152      11.809  -6.243  45.603  1.00 63.83     0.069 C 
ATOM     56  CA  LEU A 155       6.206  -8.638  48.212  1.00 59.11     0.186 C 
ATOM     57  CB  LEU A 155       7.625  -9.014  47.738  1.00 57.66     0.034 C 
ATOM     58  CG  LEU A 155       8.649  -7.918  47.468  1.00 61.82     0.002 C 
ATOM     59  CD2 LEU A 155       9.878  -8.460  46.750  1.00 63.41     0.000 C 
ATOM     60  CD1 LEU A 155       9.070  -7.292  48.768  1.00 60.03     0.000 C 
ATOM     61  CA  SER A 156       6.509  -4.864  48.930  1.00 56.90     0.219 C 
ATOM     62  CB  SER A 156       6.789  -3.832  47.837  1.00 60.21     0.216 C 
ATOM     63  OG  SER A 156       6.049  -4.032  46.641  1.00 67.39    -0.218 OA
ATOM     64  CA  ASN A 159       6.123  -4.191  54.295  1.00 52.94     0.196 C 
ATOM     65  CB  ASN A 159       7.426  -4.124  53.463  1.00 50.55     0.126 C 
ATOM     66  CG  ASN A 159       8.372  -2.991  53.785  1.00 57.65     0.276 C 
ATOM     67  OD1 ASN A 159       9.406  -2.841  53.149  1.00 61.23    -0.269 OA
ATOM     68  ND2 ASN A 159       8.031  -2.123  54.723  1.00 42.85    -0.107 N 
ATOM     69  CA  THR A 163       5.150  -0.592  59.487  1.00 57.53     0.216 C 
ATOM     70  CB  THR A 163       6.083   0.047  58.432  1.00 61.43     0.184 C 
ATOM     71  OG1 THR A 163       5.459  -0.013  57.157  1.00 59.66    -0.221 OA
ATOM     72  CG2 THR A 163       7.443  -0.630  58.354  1.00 57.38     0.038 C 
ATOM     73  CA  LYS A 173      15.330   6.284  63.552  1.00 57.57     0.186 C 
ATOM     74  CB  LYS A 173      16.293   7.171  62.738  1.00 59.52     0.034 C 
ATOM     75  CG  LYS A 173      16.408   6.832  61.258  1.00 65.83     0.005 C 
ATOM     76  CD  LYS A 173      17.743   6.149  60.951  1.00 71.51     0.041 C 
ATOM     77  CE  LYS A 173      18.445   6.663  59.712  1.00 69.08     0.338 C 
ATOM     78  NZ  LYS A 173      18.517   5.636  58.639  1.00 69.29     0.618 N 
ATOM     79  CA  LYS A 174      15.508   2.484  62.776  1.00 51.48     0.186 C 
ATOM     80  CB  LYS A 174      16.296   1.384  63.512  1.00 52.43     0.034 C 
ATOM     81  CG  LYS A 174      16.838   0.241  62.696  1.00 57.02     0.005 C 
ATOM     82  CD  LYS A 174      17.194   0.706  61.285  1.00 61.29     0.041 C 
ATOM     83  CE  LYS A 174      16.335   0.089  60.209  1.00 63.07     0.338 C 
ATOM     84  NZ  LYS A 174      16.347   0.901  58.966  1.00 64.24     0.618 N 
ATOM     85  CA  CYS A 175      12.531   1.156  60.693  1.00 52.05     0.198 C 
ATOM     86  CB  CYS A 175      12.594   0.885  59.188  1.00 52.97     0.103 C 
ATOM     87  SG  CYS A 175      11.164  -0.006  58.517  1.00 58.19    -0.080 SA
ATOM     88  CA  SER A 176      12.543  -2.161  62.656  1.00 47.09     0.219 C 
ATOM     89  CB  SER A 176      13.797  -2.935  63.058  1.00 49.42     0.216 C 
ATOM     90  OG  SER A 176      14.879  -2.701  62.171  1.00 57.35    -0.218 OA
ATOM     91  CA  LYS A 179       7.152  -2.688  62.727  1.00 48.92     0.186 C 
ATOM     92  CB  LYS A 179       8.163  -3.565  61.966  1.00 50.09     0.034 C 
ATOM     93  CG  LYS A 179       7.477  -4.613  61.104  1.00 55.91     0.005 C 
ATOM     94  CD  LYS A 179       6.729  -4.008  59.958  1.00 55.19     0.041 C 
ATOM     95  CE  LYS A 179       6.412  -5.078  58.954  1.00 53.09     0.338 C 
ATOM     96  NZ  LYS A 179       6.374  -4.554  57.564  1.00 49.98     0.618 N 
ATOM     97  CA  HIS A 187      10.766  -8.273  56.477  1.00 45.14     0.192 C 
ATOM     98  CB  HIS A 187      11.101  -7.312  57.639  1.00 44.58     0.082 C 
ATOM     99  CG  HIS A 187      10.877  -5.865  57.318  1.00 46.33     0.082 A 
ATOM    100  ND1 HIS A 187      10.396  -5.466  56.086  1.00 47.66    -0.227 NA
ATOM    101  CE1 HIS A 187      10.321  -4.147  56.140  1.00 45.53     0.199 A 
ATOM    102  NE2 HIS A 187      10.730  -3.684  57.318  1.00 45.13    -0.221 NA
ATOM    103  CD2 HIS A 187      11.086  -4.767  58.080  1.00 46.10     0.116 A 
ATOM    104  CA  VAL A 190      11.268 -10.574  51.763  1.00 49.37     0.186 C 
ATOM    105  CB  VAL A 190      10.556  -9.205  51.945  1.00 53.61     0.032 C 
ATOM    106  CG1 VAL A 190       9.434  -9.008  50.947  1.00 53.25     0.003 C 
ATOM    107  CG2 VAL A 190      10.019  -9.068  53.356  1.00 54.78     0.003 C 
ATOM    108  CA  ASN A 191      15.033 -10.052  52.403  1.00 41.57     0.196 C 
ATOM    109  CB  ASN A 191      15.643  -9.498  53.680  1.00 36.18     0.126 C 
ATOM    110  CG  ASN A 191      16.513 -10.529  54.361  1.00 51.01     0.276 C 
ATOM    111  OD1 ASN A 191      17.722 -10.618  54.135  1.00 48.94    -0.269 OA
ATOM    112  ND2 ASN A 191      15.943 -11.284  55.263  1.00 41.78    -0.107 N 
ATOM    113  CA  CYS A 194      15.509 -10.879  47.360  1.00 42.51     0.198 C 
ATOM    114  CB  CYS A 194      15.406  -9.501  47.992  1.00 42.24     0.103 C 
ATOM    115  SG  CYS A 194      16.277  -9.387  49.574  1.00 47.54    -0.080 SA
ATOM    116  CA  ARG A 256      22.497  -7.543  54.070  1.00 40.71     0.186 C 
ATOM    117  CB  ARG A 256      21.648  -7.737  52.800  1.00 38.64     0.036 C 
ATOM    118  CG  ARG A 256      20.964  -9.104  52.760  1.00 42.53     0.029 C 
ATOM    119  CD  ARG A 256      19.459  -8.997  52.511  1.00 44.33     0.145 C 
ATOM    120  NE  ARG A 256      19.059  -9.445  51.179  1.00 40.66    -0.083 NA
ATOM    121  CZ  ARG A 256      19.029  -8.664  50.105  1.00 52.38     0.782 C 
ATOM    122  NH1 ARG A 256      19.391  -7.390  50.190  1.00 37.43     0.063 N 
ATOM    123  NH2 ARG A 256      18.654  -9.154  48.933  1.00 45.57     0.063 N 
ATOM    124  CA  TYR A 259      22.125  -6.560  59.107  1.00 36.70     0.191 C 
ATOM    125  CB  TYR A 259      22.302  -5.448  58.050  1.00 36.37     0.060 C 
ATOM    126  CG  TYR A 259      20.977  -5.008  57.463  1.00 37.29    -0.020 A 
ATOM    127  CD2 TYR A 259      19.771  -5.383  58.050  1.00 37.84    -0.002 A 
ATOM    128  CE2 TYR A 259      18.549  -4.929  57.548  1.00 39.35     0.027 A 
ATOM    129  CZ  TYR A 259      18.530  -4.061  56.464  1.00 44.59     0.131 A 
ATOM    130  OH  TYR A 259      17.357  -3.587  55.940  1.00 41.50    -0.190 OA
ATOM    131  CE1 TYR A 259      19.719  -3.634  55.902  1.00 38.92     0.027 A 
ATOM    132  CD1 TYR A 259      20.931  -4.100  56.406  1.00 39.21    -0.002 A 
ATOM    133  CA  GLN A 263      16.853  -5.928  62.804  1.00 41.02     0.187 C 
ATOM    134  CB  GLN A 263      16.534  -5.555  61.339  1.00 41.50     0.044 C 
ATOM    135  CG  GLN A 263      15.111  -5.075  61.063  1.00 37.86     0.094 C 
ATOM    136  CD  GLN A 263      14.204  -6.237  60.703  1.00 48.33     0.274 C 
ATOM    137  OE1 GLN A 263      14.644  -7.266  60.174  1.00 42.79    -0.269 OA
ATOM    138  NE2 GLN A 263      12.909  -6.099  60.956  1.00 33.55    -0.107 N 
ATOM    139  CA  PHE A 277      24.046  -0.281  59.829  1.00 37.48     0.191 C 
ATOM    140  CB  PHE A 277      23.381   0.613  60.894  1.00 38.98     0.060 C 
ATOM    141  CG  PHE A 277      22.272  -0.081  61.656  1.00 40.06    -0.020 A 
ATOM    142  CD1 PHE A 277      22.558  -1.079  62.584  1.00 41.47    -0.004 A 
ATOM    143  CE1 PHE A 277      21.535  -1.723  63.279  1.00 41.97    -0.000 A 
ATOM    144  CZ  PHE A 277      20.223  -1.376  63.047  1.00 41.82    -0.000 A 
ATOM    145  CE2 PHE A 277      19.916  -0.388  62.138  1.00 44.30    -0.000 A 
ATOM    146  CD2 PHE A 277      20.938   0.254  61.437  1.00 41.93    -0.004 A 
ATOM    147  CA  LYS A 280      24.627  -1.514  54.783  1.00 38.25     0.186 C 
ATOM    148  CB  LYS A 280      23.432  -2.191  55.492  1.00 39.37     0.034 C 
ATOM    149  CG  LYS A 280      23.352  -3.701  55.388  1.00 48.63     0.005 C 
ATOM    150  CD  LYS A 280      24.104  -4.254  54.182  1.00 43.59     0.041 C 
ATOM    151  CE  LYS A 280      23.160  -4.259  53.008  1.00 39.84     0.338 C 
ATOM    152  NZ  LYS A 280      21.759  -4.000  53.390  1.00 34.79     0.618 N 
ENDMDL
REMARK VINA RESULT:       5.3      1.456      2.336
REMARK  14 active torsions:
REMARK  status: ('A' for Active; 'I' for Inactive)
REMARK    1  A    between atoms: C_3  and  C_21 
REMARK    2  A    between atoms: C_3  and  O_17 
REMARK    3  A    between atoms: C_8  and  N_27 
REMARK    4  A    between atoms: O_12  and  C_20 
REMARK    5  A    between atoms: O_13  and  C_22 
REMARK    6  A    between atoms: O_14  and  P_32 
REMARK    7  A    between atoms: O_15  and  P_33 
REMARK    8  A    between atoms: O_16  and  P_33 
REMARK    9  A    between atoms: O_17  and  P_31 
REMARK   10  A    between atoms: O_18  and  P_31 
REMARK   11  A    between atoms: O_18  and  P_32 
REMARK   12  A    between atoms: C_19  and  N_36 
REMARK   13  A    between atoms: S_37  and  P_31 
REMARK   14  A    between atoms: P_33  and  P_32 
REMARK  4 active torsions:
REMARK  status: ('A' for Active; 'I' for Inactive)
REMARK    1  A    between atoms: CA   and  CB  
REMARK    2  A    between atoms: CB   and  CG  
REMARK    3  A    between atoms: CG   and  CD  
REMARK    4  A    between atoms: CD   and  NE  
REMARK       I    between atoms: NE   and  CZ  
REMARK  2 active torsions:
REMARK  status: ('A' for Active; 'I' for Inactive)
REMARK    5  A    between atoms: CA   and  CB  
REMARK    6  A    between atoms: CB   and  SG  
REMARK  3 active torsions:
REMARK  status: ('A' for Active; 'I' for Inactive)
REMARK    7  A    between atoms: CA   and  CB  
REMARK    8  A    between atoms: CB   and  CG  
REMARK    9  A    between atoms: CG   and  CD  
REMARK  1 active torsions:
REMARK  status: ('A' for Active; 'I' for Inactive)
REMARK   10  A    between atoms: CA   and  CB  
REMARK  1 active torsions:
REMARK  status: ('A' for Active; 'I' for Inactive)
REMARK   11  A    between atoms: CA   and  CB  
REMARK  2 active torsions:
REMARK  status: ('A' for Active; 'I' for Inactive)
REMARK   12  A    between atoms: CA   and  CB  
REMARK   13  A    between atoms: CB   and  CG  
REMARK  2 active torsions:
REMARK  status: ('A' for Active; 'I' for Inactive)
REMARK   14  A    between atoms: CA   and  CB  
REMARK   15  A    between atoms: CB   and  CG  
REMARK  2 active torsions:
REMARK  status: ('A' for Active; 'I' for Inactive)
REMARK   16  A    between atoms: CA   and  CB  
REMARK   17  A    between atoms: CB   and  CG  
REMARK  3 active torsions:
REMARK  status: ('A' for Active; 'I' for Inactive)
REMARK   18  A    between atoms: CA   and  CB  
REMARK   19  A    between atoms: CB   and  CG  
REMARK   20  A    between atoms: CG   and  SD  
REMARK  2 active torsions:
REMARK  status: ('A' for Active; 'I' for Inactive)
REMARK   21  A    between atoms: CA   and  CB  
REMARK   22  A    between atoms: CB   and  CG  
REMARK  1 active torsions:
REMARK  status: ('A' for Active; 'I' for Inactive)
REMARK   23  A    between atoms: CA   and  CB  
REMARK  2 active torsions:
REMARK  status: ('A' for Active; 'I' for Inactive)
REMARK   24  A    between atoms: CA   and  CB  
REMARK   25  A    between atoms: CB   and  CG  
REMARK  1 active torsions:
REMARK  status: ('A' for Active; 'I' for Inactive)
REMARK   26  A    between atoms: CA   and  CB  
REMARK  4 active torsions:
REMARK  status: ('A' for Active; 'I' for Inactive)
REMARK   27  A    between atoms: CA   and  CB  
REMARK   28  A    between atoms: CB   and  CG  
REMARK   29  A    between atoms: CG   and  CD  
REMARK   30  A    between atoms: CD   and  CE  
REMARK  4 active torsions:
REMARK  status: ('A' for Active; 'I' for Inactive)
REMARK   31  A    between atoms: CA   and  CB  
REMARK   32  A    between atoms: CB   and  CG  
REMARK   33  A    between atoms: CG   and  CD  
REMARK   34  A    between atoms: CD   and  CE  
REMARK  2 active torsions:
REMARK  status: ('A' for Active; 'I' for Inactive)
REMARK   35  A    between atoms: CA   and  CB  
REMARK   36  A    between atoms: CB   and  SG  
REMARK  1 active torsions:
REMARK  status: ('A' for Active; 'I' for Inactive)
REMARK   37  A    between atoms: CA   and  CB  
REMARK  4 active torsions:
REMARK  status: ('A' for Active; 'I' for Inactive)
REMARK   38  A    between atoms: CA   and  CB  
REMARK   39  A    between atoms: CB   and  CG  
REMARK   40  A    between atoms: CG   and  CD  
REMARK   41  A    between atoms: CD   and  CE  
REMARK  2 active torsions:
REMARK  status: ('A' for Active; 'I' for Inactive)
REMARK   42  A    between atoms: CA   and  CB  
REMARK   43  A    between atoms: CB   and  CG  
REMARK  1 active torsions:
REMARK  status: ('A' for Active; 'I' for Inactive)
REMARK   44  A    between atoms: CA   and  CB  
REMARK  2 active torsions:
REMARK  status: ('A' for Active; 'I' for Inactive)
REMARK   45  A    between atoms: CA   and  CB  
REMARK   46  A    between atoms: CB   and  CG  
REMARK  1 active torsions:
REMARK  status: ('A' for Active; 'I' for Inactive)
REMARK   47  A    between atoms: CA   and  CB  
REMARK  4 active torsions:
REMARK  status: ('A' for Active; 'I' for Inactive)
REMARK   48  A    between atoms: CA   and  CB  
REMARK   49  A    between atoms: CB   and  CG  
REMARK   50  A    between atoms: CG   and  CD  
REMARK   51  A    between atoms: CD   and  NE  
REMARK       I    between atoms: NE   and  CZ  
REMARK  2 active torsions:
REMARK  status: ('A' for Active; 'I' for Inactive)
REMARK   52  A    between atoms: CA   and  CB  
REMARK   53  A    between atoms: CB   and  CG  
REMARK  3 active torsions:
REMARK  status: ('A' for Active; 'I' for Inactive)
REMARK   54  A    between atoms: CA   and  CB  
REMARK   55  A    between atoms: CB   and  CG  
REMARK   56  A    between atoms: CG   and  CD  
REMARK  2 active torsions:
REMARK  status: ('A' for Active; 'I' for Inactive)
REMARK   57  A    between atoms: CA   and  CB  
REMARK   58  A    between atoms: CB   and  CG  
REMARK  4 active torsions:
REMARK  status: ('A' for Active; 'I' for Inactive)
REMARK   59  A    between atoms: CA   and  CB  
REMARK   60  A    between atoms: CB   and  CG  
REMARK   61  A    between atoms: CG   and  CD  
REMARK   62  A    between atoms: CD   and  CE  
REMARK viewdock state: D
ATOM      1  C   LIG d 111      14.823  -3.527  54.021  0.00  0.00     0.434 A 
ATOM      2  C   LIG d 111      11.298  -4.298  51.564  0.00  0.00     0.230 A 
ATOM      3  C   LIG d 111      13.066  -5.757  51.932  0.00  0.00     0.152 A 
ATOM      4  N   LIG d 111      11.737  -3.282  52.342  0.00  0.00    -0.173 NA
ATOM      5  N   LIG d 111      14.819  -4.717  53.457  0.00  0.00    -0.182 NA
ATOM      6  N   LIG d 111      11.885  -5.491  51.329  0.00  0.00    -0.218 NA
ATOM      7  C   LIG d 111      12.924  -3.591  52.896  0.00  0.00     0.339 A 
ATOM      8  C   LIG d 111      13.639  -4.769  52.749  0.00  0.00     0.201 A 
ATOM      9  N   LIG d 111      13.685  -2.818  53.733  0.00  0.00    -0.132 N 
ATOM     10  C   LIG d 111      13.358  -1.473  54.170  0.00  0.00     0.443 C 
ATOM     11  O   LIG d 111      14.570  -0.788  54.550  0.00  0.00    -0.309 OA
ATOM     12  C   LIG d 111      14.331  -0.082  55.790  0.00  0.00     0.182 C 
ATOM     13  C   LIG d 111      12.826  -0.100  56.017  0.00  0.00     0.183 C 
ATOM     14  C   LIG d 111      12.435  -1.427  55.395  0.00  0.00     0.244 C 
ATOM     15  C   LIG d 111      14.936   1.316  55.698  0.00  0.00     0.203 C 
ATOM     16  O   LIG d 111      15.569   1.464  54.427  0.00  0.00    -0.321 OA
ATOM     17  P   LIG d 111      16.603   2.699  54.191  0.00  0.00     0.234 P 
ATOM     18  S   LIG d 111      17.362   2.686  52.401  0.00  0.00     0.003 SA
ATOM     19  O   LIG d 111      17.705   2.241  55.278  0.00  0.00    -0.238 OA
ATOM     20  P   LIG d 111      17.664   2.600  56.841  0.00  0.00     0.445 P 
ATOM     21  O   LIG d 111      16.298   2.318  57.407  0.00  0.00    -0.245 OA
ATOM     22  O   LIG d 111      18.662   1.453  57.413  0.00  0.00    -0.316 OA
ATOM     23  H   LIG d 111      19.440   1.849  57.851  0.00  0.00     0.220 HD
ATOM     24  P   LIG d 111      18.445   4.797  57.338  0.00  0.00     0.438 P 
ATOM     25  O   LIG d 111      18.415   5.097  58.809  0.00  0.00    -0.246 OA
ATOM     26  O   LIG d 111      17.661   5.955  56.533  0.00  0.00    -0.316 OA
ATOM     27  H   LIG d 111      16.696   5.809  56.588  0.00  0.00     0.220 HD
ATOM     28  O   LIG d 111      19.918   5.088  56.730  0.00  0.00    -0.316 OA
ATOM     29  H   LIG d 111      20.575   4.396  56.931  0.00  0.00     0.220 HD
ATOM     30  S   LIG d  11      15.632   4.402  54.947  0.00  0.00    -0.091 SA
ATOM     31  H   LIG d  11      16.439   5.293  54.355  0.00  0.00     0.111 HD
ATOM     32  O   LIG d 111      12.171   0.964  55.319  0.00  0.00    -0.386 OA
ATOM     33  H   LIG d 111      12.895   1.489  54.913  0.00  0.00     0.210 HD
ATOM     34  O   LIG d 111      11.040  -1.425  55.089  0.00  0.00    -0.380 OA
ATOM     35  H   LIG d 111      10.624  -0.781  55.705  0.00  0.00     0.210 HD
ATOM     36  N   LIG d 111      13.664  -6.988  51.693  0.00  0.00    -0.341 NA
ATOM     37  H   LIG d 111      14.004  -7.435  52.538  0.00  0.00     0.144 HD
ATOM     38  H   LIG d 111      14.290  -6.957  50.899  0.00  0.00     0.144 HD
ATOM      1  CA  ARG A  93      11.357   9.429  58.493  1.00 59.89     0.186 C 
ATOM      2  CB  ARG A  93      12.236   9.564  59.757  1.00 58.23     0.036 C 
ATOM      3  CG  ARG A  93      11.597   9.089  61.076  1.00 60.51     0.029 C 
ATOM      4  CD  ARG A  93      11.170   7.624  61.088  1.00 61.21     0.145 C 
ATOM      5  NE  ARG A  93      11.247   7.059  62.438  1.00 60.36    -0.083 NA
ATOM      6  CZ  ARG A  93      11.624   5.816  62.728  1.00 66.21     0.782 C 
ATOM      7  NH2 ARG A  93      11.660   5.407  63.987  1.00 48.93     0.063 N 
ATOM      8  NH1 ARG A  93      11.959   4.970  61.759  1.00 52.54     0.063 N 
ATOM      9  CA  CYS A  97      10.408   3.635  56.475  1.00 55.45     0.198 C 
ATOM     10  CB  CYS A  97      10.309   3.703  57.996  1.00 56.61     0.103 C 
ATOM     11  SG  CYS A  97       8.674   3.297  58.655  1.00 59.92    -0.080 SA
ATOM     12  CA  GLN A  98       6.821   2.814  55.435  1.00 57.21     0.187 C 
ATOM     13  CB  GLN A  98       5.702   3.596  56.134  1.00 60.72     0.044 C 
ATOM     14  CG  GLN A  98       5.935   5.077  56.373  1.00 78.15     0.094 C 
ATOM     15  CD  GLN A  98       4.877   5.925  55.712  1.00 97.60     0.274 C 
ATOM     16  OE1 GLN A  98       4.524   5.747  54.536  1.00 90.91    -0.269 OA
ATOM     17  NE2 GLN A  98       4.347   6.878  56.460  1.00 94.53    -0.107 N 
ATOM     18  CA  SER A 101      12.406   3.303  51.001  1.00 47.65     0.219 C 
ATOM     19  CB  SER A 101      13.190   3.322  52.316  1.00 49.57     0.216 C 
ATOM     20  OG  SER A 101      14.321   4.177  52.322  1.00 54.41    -0.218 OA
ATOM     21  CA  VAL A 102      10.122   0.251  50.319  1.00 45.51     0.186 C 
ATOM     22  CB  VAL A 102       8.740  -0.096  50.947  1.00 49.19     0.032 C 
ATOM     23  CG1 VAL A 102       8.571   0.575  52.308  1.00 48.60     0.003 C 
ATOM     24  CG2 VAL A 102       7.594   0.303  50.018  1.00 48.10     0.003 C 
ATOM     25  CA  TYR A 105      14.000  -1.737  47.254  1.00 43.40     0.191 C 
ATOM     26  CB  TYR A 105      13.781  -2.368  48.630  1.00 43.23     0.060 C 
ATOM     27  CG  TYR A 105      13.400  -3.833  48.605  1.00 42.60    -0.020 A 
ATOM     28  CD2 TYR A 105      12.091  -4.227  48.346  1.00 43.44    -0.002 A 
ATOM     29  CE2 TYR A 105      11.743  -5.572  48.260  1.00 43.57     0.027 A 
ATOM     30  CZ  TYR A 105      12.714  -6.547  48.412  1.00 47.42     0.131 A 
ATOM     31  OH  TYR A 105      12.358  -7.870  48.309  1.00 47.92    -0.190 OA
ATOM     32  CE1 TYR A 105      14.025  -6.182  48.670  1.00 40.45     0.027 A 
ATOM     33  CD1 TYR A 105      14.365  -4.830  48.743  1.00 42.63    -0.002 A 
ATOM     34  CA  PHE A 106      11.158  -3.179  45.107  1.00 51.18     0.191 C 
ATOM     35  CB  PHE A 106       9.636  -3.197  45.400  1.00 55.17     0.060 C 
ATOM     36  CG  PHE A 106       9.108  -3.095  46.813  1.00 59.28    -0.020 A 
ATOM     37  CD1 PHE A 106       9.525  -3.990  47.797  1.00 63.24    -0.004 A 
ATOM     38  CE1 PHE A 106       9.067  -3.879  49.110  1.00 66.24    -0.000 A 
ATOM     39  CZ  PHE A 106       8.260  -2.819  49.471  1.00 67.24    -0.000 A 
ATOM     40  CE2 PHE A 106       7.891  -1.881  48.529  1.00 68.40    -0.000 A 
ATOM     41  CD2 PHE A 106       8.333  -2.009  47.203  1.00 63.30    -0.004 A 
ATOM     42  CA  TYR A 109      15.002  -5.824  42.359  1.00 44.32     0.191 C 
ATOM     43  CB  TYR A 109      14.401  -6.700  43.474  1.00 43.91     0.060 C 
ATOM     44  CG  TYR A 109      13.981  -8.033  42.895  1.00 41.58    -0.020 A 
ATOM     45  CD1 TYR A 109      13.053  -8.838  43.552  1.00 42.10    -0.002 A 
ATOM     46  CE1 TYR A 109      12.587 -10.023  42.981  1.00 39.95     0.027 A 
ATOM     47  CZ  TYR A 109      13.021 -10.397  41.721  1.00 44.86     0.131 A 
ATOM     48  CE2 TYR A 109      13.926  -9.603  41.038  1.00 40.45     0.027 A 
ATOM     49  OH  TYR A 109      12.573 -11.570  41.166  1.00 45.89    -0.190 OA
ATOM     50  CD2 TYR A 109      14.383  -8.418  41.617  1.00 41.38    -0.002 A 
ATOM     51  CA  MET A 152       7.849  -7.115  43.442  1.00 60.44     0.187 C 
ATOM     52  CB  MET A 152       8.864  -6.222  42.718  1.00 62.10     0.046 C 
ATOM     53  CG  MET A 152       9.990  -5.757  43.600  1.00 64.63     0.060 C 
ATOM     54  SD  MET A 152      10.361  -6.817  45.016  1.00 66.98    -0.139 SA
ATOM     55  CE  MET A 152      11.972  -6.180  45.398  1.00 63.83     0.069 C 
ATOM     56  CA  LEU A 155       6.206  -8.638  48.212  1.00 59.11     0.186 C 
ATOM     57  CB  LEU A 155       7.625  -9.014  47.738  1.00 57.66     0.034 C 
ATOM     58  CG  LEU A 155       8.820  -8.181  48.187  1.00 61.82     0.002 C 
ATOM     59  CD2 LEU A 155       9.150  -7.084  47.185  1.00 63.41     0.000 C 
ATOM     60  CD1 LEU A 155      10.017  -9.073  48.360  1.00 60.03     0.000 C 
ATOM     61  CA  SER A 156       6.509  -4.864  48.930  1.00 56.90     0.219 C 
ATOM     62  CB  SER A 156       6.789  -3.832  47.837  1.00 60.21     0.216 C 
ATOM     63  OG  SER A 156       6.105  -4.074  46.616  1.00 67.39    -0.218 OA
ATOM     64  CA  ASN A 159       6.123  -4.191  54.295  1.00 52.94     0.196 C 
ATOM     65  CB  ASN A 159       7.426  -4.124  53.463  1.00 50.55     0.126 C 
ATOM     66  CG  ASN A 159       8.360  -2.976  53.766  1.00 57.65     0.276 C 
ATOM     67  OD1 ASN A 159       9.383  -2.815  53.117  1.00 61.23    -0.269 OA
ATOM     68  ND2 ASN A 159       8.017  -2.107  54.704  1.00 42.85    -0.107 N 
ATOM     69  CA  THR A 163       5.150  -0.592  59.487  1.00 57.53     0.216 C 
ATOM     70  CB  THR A 163       6.083   0.047  58.432  1.00 61.43     0.184 C 
ATOM     71  OG1 THR A 163       6.217   1.435  58.705  1.00 59.66    -0.221 OA
ATOM     72  CG2 THR A 163       5.581  -0.135  57.007  1.00 57.38     0.038 C 
ATOM     73  CA  LYS A 173      15.330   6.284  63.552  1.00 57.57     0.186 C 
ATOM     74  CB  LYS A 173      16.293   7.171  62.738  1.00 59.52     0.034 C 
ATOM     75  CG  LYS A 173      17.369   6.429  61.957  1.00 65.83     0.005 C 
ATOM     76  CD  LYS A 173      17.465   6.948  60.520  1.00 71.51     0.041 C 
ATOM     77  CE  LYS A 173      18.866   6.976  59.951  1.00 69.08     0.338 C 
ATOM     78  NZ  LYS A 173      19.017   7.989  58.873  1.00 69.29     0.618 N 
ATOM     79  CA  LYS A 174      15.508   2.484  62.776  1.00 51.48     0.186 C 
ATOM     80  CB  LYS A 174      16.296   1.384  63.512  1.00 52.43     0.034 C 
ATOM     81  CG  LYS A 174      16.959   0.318  62.681  1.00 57.02     0.005 C 
ATOM     82  CD  LYS A 174      17.337   0.863  61.305  1.00 61.29     0.041 C 
ATOM     83  CE  LYS A 174      16.549   0.250  60.173  1.00 63.07     0.338 C 
ATOM     84  NZ  LYS A 174      15.680  -0.856  60.648  1.00 64.24     0.618 N 
ATOM     85  CA  CYS A 175      12.531   1.156  60.693  1.00 52.05     0.198 C 
ATOM     86  CB  CYS A 175      12.594   0.885  59.188  1.00 52.97     0.103 C 
ATOM     87  SG  CYS A 175      11.124   0.074  58.501  1.00 58.19    -0.080 SA
ATOM     88  CA  SER A 176      12.543  -2.161  62.656  1.00 47.09     0.219 C 
ATOM     89  CB  SER A 176      13.797  -2.935  63.058  1.00 49.42     0.216 C 
ATOM     90  OG  SER A 176      13.489  -4.122  63.771  1.00 57.35    -0.218 OA
ATOM     91  CA  LYS A 179       7.152  -2.688  62.727  1.00 48.92     0.186 C 
ATOM     92  CB  LYS A 179       8.163  -3.565  61.966  1.00 50.09     0.034 C 
ATOM     93  CG  LYS A 179       7.485  -4.696  61.211  1.00 55.91     0.005 C 
ATOM     94  CD  LYS A 179       6.597  -4.199  60.114  1.00 55.19     0.041 C 
ATOM     95  CE  LYS A 179       7.073  -4.751  58.802  1.00 53.09     0.338 C 
ATOM     96  NZ  LYS A 179       6.028  -4.682  57.748  1.00 49.98     0.618 N 
ATOM     97  CA  HIS A 187      10.766  -8.273  56.477  1.00 45.14     0.192 C 
ATOM     98  CB  HIS A 187      11.101  -7.312  57.639  1.00 44.58     0.082 C 
ATOM     99  CG  HIS A 187      10.871  -5.865  57.321  1.00 46.33     0.082 A 
ATOM    100  ND1 HIS A 187      11.210  -4.868  58.216  1.00 47.66    -0.227 NA
ATOM    101  CE1 HIS A 187      10.877  -3.732  57.629  1.00 45.53     0.199 A 
ATOM    102  NE2 HIS A 187      10.343  -3.941  56.428  1.00 45.13    -0.221 NA
ATOM    103  CD2 HIS A 187      10.334  -5.296  56.218  1.00 46.10     0.116 A 
ATOM    104  CA  VAL A 190      11.268 -10.574  51.763  1.00 49.37     0.186 C 
ATOM    105  CB  VAL A 190      10.556  -9.205  51.945  1.00 53.61     0.032 C 
ATOM    106  CG1 VAL A 190       9.138  -9.362  52.454  1.00 53.25     0.003 C 
ATOM    107  CG2 VAL A 190      11.345  -8.316  52.886  1.00 54.78     0.003 C 
ATOM    108  CA  ASN A 191      15.033 -10.052  52.403  1.00 41.57     0.196 C 
ATOM    109  CB  ASN A 191      15.643  -9.498  53.680  1.00 36.18     0.126 C 
ATOM    110  CG  ASN A 191      16.796 -10.354  54.149  1.00 51.01     0.276 C 
ATOM    111  OD1 ASN A 191      17.960 -10.127  53.810  1.00 48.94    -0.269 OA
ATOM    112  ND2 ASN A 191      16.520 -11.310  54.997  1.00 41.78    -0.107 N 
ATOM    113  CA  CYS A 194      15.509 -10.879  47.360  1.00 42.51     0.198 C 
ATOM    114  CB  CYS A 194      15.406  -9.501  47.992  1.00 42.24     0.103 C 
ATOM    115  SG  CYS A 194      16.632  -9.233  49.296  1.00 47.54    -0.080 SA
ATOM    116  CA  ARG A 256      22.497  -7.543  54.070  1.00 40.71     0.186 C 
ATOM    117  CB  ARG A 256      21.648  -7.737  52.800  1.00 38.64     0.036 C 
ATOM    118  CG  ARG A 256      22.312  -7.141  51.558  1.00 42.53     0.029 C 
ATOM    119  CD  ARG A 256      21.404  -7.188  50.329  1.00 44.33     0.145 C 
ATOM    120  NE  ARG A 256      20.390  -8.238  50.398  1.00 40.66    -0.083 NA
ATOM    121  CZ  ARG A 256      19.083  -8.013  50.470  1.00 52.38     0.782 C 
ATOM    122  NH1 ARG A 256      18.613  -6.772  50.468  1.00 37.43     0.063 N 
ATOM    123  NH2 ARG A 256      18.233  -9.027  50.529  1.00 45.57     0.063 N 
ATOM    124  CA  TYR A 259      22.125  -6.560  59.107  1.00 36.70     0.191 C 
ATOM    125  CB  TYR A 259      22.302  -5.448  58.050  1.00 36.37     0.060 C 
ATOM    126  CG  TYR A 259      20.976  -5.004  57.467  1.00 37.29    -0.020 A 
ATOM    127  CD2 TYR A 259      19.771  -5.367  58.063  1.00 37.84    -0.002 A 
ATOM    128  CE2 TYR A 259      18.549  -4.909  57.565  1.00 39.35     0.027 A 
ATOM    129  CZ  TYR A 259      18.530  -4.049  56.474  1.00 44.59     0.131 A 
ATOM    130  OH  TYR A 259      17.357  -3.572  55.954  1.00 41.50    -0.190 OA
ATOM    131  CE1 TYR A 259      19.718  -3.634  55.903  1.00 38.92     0.027 A 
ATOM    132  CD1 TYR A 259      20.930  -4.104  56.403  1.00 39.21    -0.002 A 
ATOM    133  CA  GLN A 263      16.853  -5.928  62.804  1.00 41.02     0.187 C 
ATOM    134  CB  GLN A 263      16.534  -5.555  61.339  1.00 41.50     0.044 C 
ATOM    135  CG  GLN A 263      15.191  -4.871  61.097  1.00 37.86     0.094 C 
ATOM    136  CD  GLN A 263      14.120  -5.883  60.739  1.00 48.33     0.274 C 
ATOM    137  OE1 GLN A 263      12.916  -5.644  60.908  1.00 42.79    -0.269 OA
ATOM    138  NE2 GLN A 263      14.523  -7.051  60.255  1.00 33.55    -0.107 N 
ATOM    139  CA  PHE A 277      24.046  -0.281  59.829  1.00 37.48     0.191 C 
ATOM    140  CB  PHE A 277      23.381   0.613  60.894  1.00 38.98     0.060 C 
ATOM    141  CG  PHE A 277      22.274  -0.082  61.659  1.00 40.06    -0.020 A 
ATOM    142  CD1 PHE A 277      22.559  -1.118  62.545  1.00 41.47    -0.004 A 
ATOM    143  CE1 PHE A 277      21.538  -1.763  63.242  1.00 41.97    -0.000 A 
ATOM    144  CZ  PHE A 277      20.229  -1.379  63.053  1.00 41.82    -0.000 A 
ATOM    145  CE2 PHE A 277      19.924  -0.353  62.187  1.00 44.30    -0.000 A 
ATOM    146  CD2 PHE A 277      20.944   0.290  61.483  1.00 41.93    -0.004 A 
ATOM    147  CA  LYS A 280      24.627  -1.514  54.783  1.00 38.25     0.186 C 
ATOM    148  CB  LYS A 280      23.432  -2.191  55.492  1.00 39.37     0.034 C 
ATOM    149  CG  LYS A 280      23.345  -3.700  55.376  1.00 48.63     0.005 C 
ATOM    150  CD  LYS A 280      24.140  -4.253  54.199  1.00 43.59     0.041 C 
ATOM    151  CE  LYS A 280      23.264  -4.188  52.975  1.00 39.84     0.338 C 
ATOM    152  NZ  LYS A 280      21.829  -4.067  53.295  1.00 34.79     0.618 N 
ENDMDL
REMARK VINA RESULT:       5.6      1.611      2.403
REMARK  14 active torsions:
REMARK  status: ('A' for Active; 'I' for Inactive)
REMARK    1  A    between atoms: C_3  and  C_21 
REMARK    2  A    between atoms: C_3  and  O_17 
REMARK    3  A    between atoms: C_8  and  N_27 
REMARK    4  A    between atoms: O_12  and  C_20 
REMARK    5  A    between atoms: O_13  and  C_22 
REMARK    6  A    between atoms: O_14  and  P_32 
REMARK    7  A    between atoms: O_15  and  P_33 
REMARK    8  A    between atoms: O_16  and  P_33 
REMARK    9  A    between atoms: O_17  and  P_31 
REMARK   10  A    between atoms: O_18  and  P_31 
REMARK   11  A    between atoms: O_18  and  P_32 
REMARK   12  A    between atoms: C_19  and  N_36 
REMARK   13  A    between atoms: S_37  and  P_31 
REMARK   14  A    between atoms: P_33  and  P_32 
REMARK  4 active torsions:
REMARK  status: ('A' for Active; 'I' for Inactive)
REMARK    1  A    between atoms: CA   and  CB  
REMARK    2  A    between atoms: CB   and  CG  
REMARK    3  A    between atoms: CG   and  CD  
REMARK    4  A    between atoms: CD   and  NE  
REMARK       I    between atoms: NE   and  CZ  
REMARK  2 active torsions:
REMARK  status: ('A' for Active; 'I' for Inactive)
REMARK    5  A    between atoms: CA   and  CB  
REMARK    6  A    between atoms: CB   and  SG  
REMARK  3 active torsions:
REMARK  status: ('A' for Active; 'I' for Inactive)
REMARK    7  A    between atoms: CA   and  CB  
REMARK    8  A    between atoms: CB   and  CG  
REMARK    9  A    between atoms: CG   and  CD  
REMARK  1 active torsions:
REMARK  status: ('A' for Active; 'I' for Inactive)
REMARK   10  A    between atoms: CA   and  CB  
REMARK  1 active torsions:
REMARK  status: ('A' for Active; 'I' for Inactive)
REMARK   11  A    between atoms: CA   and  CB  
REMARK  2 active torsions:
REMARK  status: ('A' for Active; 'I' for Inactive)
REMARK   12  A    between atoms: CA   and  CB  
REMARK   13  A    between atoms: CB   and  CG  
REMARK  2 active torsions:
REMARK  status: ('A' for Active; 'I' for Inactive)
REMARK   14  A    between atoms: CA   and  CB  
REMARK   15  A    between atoms: CB   and  CG  
REMARK  2 active torsions:
REMARK  status: ('A' for Active; 'I' for Inactive)
REMARK   16  A    between atoms: CA   and  CB  
REMARK   17  A    between atoms: CB   and  CG  
REMARK  3 active torsions:
REMARK  status: ('A' for Active; 'I' for Inactive)
REMARK   18  A    between atoms: CA   and  CB  
REMARK   19  A    between atoms: CB   and  CG  
REMARK   20  A    between atoms: CG   and  SD  
REMARK  2 active torsions:
REMARK  status: ('A' for Active; 'I' for Inactive)
REMARK   21  A    between atoms: CA   and  CB  
REMARK   22  A    between atoms: CB   and  CG  
REMARK  1 active torsions:
REMARK  status: ('A' for Active; 'I' for Inactive)
REMARK   23  A    between atoms: CA   and  CB  
REMARK  2 active torsions:
REMARK  status: ('A' for Active; 'I' for Inactive)
REMARK   24  A    between atoms: CA   and  CB  
REMARK   25  A    between atoms: CB   and  CG  
REMARK  1 active torsions:
REMARK  status: ('A' for Active; 'I' for Inactive)
REMARK   26  A    between atoms: CA   and  CB  
REMARK  4 active torsions:
REMARK  status: ('A' for Active; 'I' for Inactive)
REMARK   27  A    between atoms: CA   and  CB  
REMARK   28  A    between atoms: CB   and  CG  
REMARK   29  A    between atoms: CG   and  CD  
REMARK   30  A    between atoms: CD   and  CE  
REMARK  4 active torsions:
REMARK  status: ('A' for Active; 'I' for Inactive)
REMARK   31  A    between atoms: CA   and  CB  
REMARK   32  A    between atoms: CB   and  CG  
REMARK   33  A    between atoms: CG   and  CD  
REMARK   34  A    between atoms: CD   and  CE  
REMARK  2 active torsions:
REMARK  status: ('A' for Active; 'I' for Inactive)
REMARK   35  A    between atoms: CA   and  CB  
REMARK   36  A    between atoms: CB   and  SG  
REMARK  1 active torsions:
REMARK  status: ('A' for Active; 'I' for Inactive)
REMARK   37  A    between atoms: CA   and  CB  
REMARK  4 active torsions:
REMARK  status: ('A' for Active; 'I' for Inactive)
REMARK   38  A    between atoms: CA   and  CB  
REMARK   39  A    between atoms: CB   and  CG  
REMARK   40  A    between atoms: CG   and  CD  
REMARK   41  A    between atoms: CD   and  CE  
REMARK  2 active torsions:
REMARK  status: ('A' for Active; 'I' for Inactive)
REMARK   42  A    between atoms: CA   and  CB  
REMARK   43  A    between atoms: CB   and  CG  
REMARK  1 active torsions:
REMARK  status: ('A' for Active; 'I' for Inactive)
REMARK   44  A    between atoms: CA   and  CB  
REMARK  2 active torsions:
REMARK  status: ('A' for Active; 'I' for Inactive)
REMARK   45  A    between atoms: CA   and  CB  
REMARK   46  A    between atoms: CB   and  CG  
REMARK  1 active torsions:
REMARK  status: ('A' for Active; 'I' for Inactive)
REMARK   47  A    between atoms: CA   and  CB  
REMARK  4 active torsions:
REMARK  status: ('A' for Active; 'I' for Inactive)
REMARK   48  A    between atoms: CA   and  CB  
REMARK   49  A    between atoms: CB   and  CG  
REMARK   50  A    between atoms: CG   and  CD  
REMARK   51  A    between atoms: CD   and  NE  
REMARK       I    between atoms: NE   and  CZ  
REMARK  2 active torsions:
REMARK  status: ('A' for Active; 'I' for Inactive)
REMARK   52  A    between atoms: CA   and  CB  
REMARK   53  A    between atoms: CB   and  CG  
REMARK  3 active torsions:
REMARK  status: ('A' for Active; 'I' for Inactive)
REMARK   54  A    between atoms: CA   and  CB  
REMARK   55  A    between atoms: CB   and  CG  
REMARK   56  A    between atoms: CG   and  CD  
REMARK  2 active torsions:
REMARK  status: ('A' for Active; 'I' for Inactive)
REMARK   57  A    between atoms: CA   and  CB  
REMARK   58  A    between atoms: CB   and  CG  
REMARK  4 active torsions:
REMARK  status: ('A' for Active; 'I' for Inactive)
REMARK   59  A    between atoms: CA   and  CB  
REMARK   60  A    between atoms: CB   and  CG  
REMARK   61  A    between atoms: CG   and  CD  
REMARK   62  A    between atoms: CD   and  CE  
REMARK viewdock state: D
ATOM      1  C   LIG d 111      11.332  -4.256  52.509  0.00  0.00     0.434 A 
ATOM      2  C   LIG d 111      15.689  -4.321  52.771  0.00  0.00     0.230 A 
ATOM      3  C   LIG d 111      14.358  -5.817  51.596  0.00  0.00     0.152 A 
ATOM      4  N   LIG d 111      14.700  -3.524  53.235  0.00  0.00    -0.173 NA
ATOM      5  N   LIG d 111      11.890  -5.243  51.839  0.00  0.00    -0.182 NA
ATOM      6  N   LIG d 111      15.589  -5.421  51.995  0.00  0.00    -0.218 NA
ATOM      7  C   LIG d 111      13.499  -3.977  52.829  0.00  0.00     0.339 A 
ATOM      8  C   LIG d 111      13.244  -5.082  52.034  0.00  0.00     0.201 A 
ATOM      9  N   LIG d 111      12.266  -3.447  53.103  0.00  0.00    -0.132 N 
ATOM     10  C   LIG d 111      12.014  -2.277  53.927  0.00  0.00     0.443 C 
ATOM     11  O   LIG d 111      12.999  -1.265  53.627  0.00  0.00    -0.309 OA
ATOM     12  C   LIG d 111      13.470  -0.698  54.872  0.00  0.00     0.182 C 
ATOM     13  C   LIG d 111      12.517  -1.181  55.957  0.00  0.00     0.183 C 
ATOM     14  C   LIG d 111      12.119  -2.548  55.434  0.00  0.00     0.244 C 
ATOM     15  C   LIG d 111      13.549   0.820  54.737  0.00  0.00     0.203 C 
ATOM     16  O   LIG d 111      14.347   1.338  55.801  0.00  0.00    -0.321 OA
ATOM     17  P   LIG d 111      15.959   1.105  55.774  0.00  0.00     0.234 P 
ATOM     18  S   LIG d 111      16.896   2.340  56.948  0.00  0.00     0.003 SA
ATOM     19  O   LIG d 111      16.187   1.510  54.227  0.00  0.00    -0.238 OA
ATOM     20  P   LIG d 111      16.740   2.927  53.717  0.00  0.00     0.445 P 
ATOM     21  O   LIG d 111      16.080   4.049  54.474  0.00  0.00    -0.245 OA
ATOM     22  O   LIG d 111      18.272   2.831  54.247  0.00  0.00    -0.316 OA
ATOM     23  H   LIG d 111      18.655   1.952  54.063  0.00  0.00     0.220 HD
ATOM     24  P   LIG d 111      16.626   3.203  51.352  0.00  0.00     0.438 P 
ATOM     25  O   LIG d 111      16.008   2.019  50.666  0.00  0.00    -0.246 OA
ATOM     26  O   LIG d 111      18.052   3.537  50.674  0.00  0.00    -0.316 OA
ATOM     27  H   LIG d 111      18.695   2.828  50.875  0.00  0.00     0.220 HD
ATOM     28  O   LIG d 111      15.870   4.568  50.918  0.00  0.00    -0.316 OA
ATOM     29  H   LIG d 111      15.531   5.091  51.669  0.00  0.00     0.220 HD
ATOM     30  S   LIG d  11      16.235  -0.970  55.938  0.00  0.00    -0.091 SA
ATOM     31  H   LIG d  11      17.457  -0.904  56.481  0.00  0.00     0.111 HD
ATOM     32  O   LIG d 111      11.356  -0.350  56.053  0.00  0.00    -0.386 OA
ATOM     33  H   LIG d 111      11.534   0.410  55.459  0.00  0.00     0.210 HD
ATOM     34  O   LIG d 111      10.899  -2.965  56.048  0.00  0.00    -0.380 OA
ATOM     35  H   LIG d 111      10.614  -2.221  56.625  0.00  0.00     0.210 HD
ATOM     36  N   LIG d 111      14.259  -6.945  50.793  0.00  0.00    -0.341 NA
ATOM     37  H   LIG d 111      13.382  -6.995  50.285  0.00  0.00     0.144 HD
ATOM     38  H   LIG d 111      14.566  -7.781  51.273  0.00  0.00     0.144 HD
ATOM      1  CA  ARG A  93      11.357   9.429  58.493  1.00 59.89     0.186 C 
ATOM      2  CB  ARG A  93      12.236   9.564  59.757  1.00 58.23     0.036 C 
ATOM      3  CG  ARG A  93      11.598   9.087  61.076  1.00 60.51     0.029 C 
ATOM      4  CD  ARG A  93      11.180   7.619  61.089  1.00 61.21     0.145 C 
ATOM      5  NE  ARG A  93      11.263   7.056  62.439  1.00 60.36    -0.083 NA
ATOM      6  CZ  ARG A  93      11.644   5.814  62.728  1.00 66.21     0.782 C 
ATOM      7  NH2 ARG A  93      11.686   5.405  63.988  1.00 48.93     0.063 N 
ATOM      8  NH1 ARG A  93      11.978   4.968  61.759  1.00 52.54     0.063 N 
ATOM      9  CA  CYS A  97      10.408   3.635  56.475  1.00 55.45     0.198 C 
ATOM     10  CB  CYS A  97      10.309   3.703  57.996  1.00 56.61     0.103 C 
ATOM     11  SG  CYS A  97       8.641   3.441  58.647  1.00 59.92    -0.080 SA
ATOM     12  CA  GLN A  98       6.821   2.814  55.435  1.00 57.21     0.187 C 
ATOM     13  CB  GLN A  98       5.702   3.596  56.134  1.00 60.72     0.044 C 
ATOM     14  CG  GLN A  98       5.930   5.080  56.362  1.00 78.15     0.094 C 
ATOM     15  CD  GLN A  98       4.859   5.918  55.708  1.00 97.60     0.274 C 
ATOM     16  OE1 GLN A  98       4.495   5.733  54.537  1.00 90.91    -0.269 OA
ATOM     17  NE2 GLN A  98       4.332   6.871  56.458  1.00 94.53    -0.107 N 
ATOM     18  CA  SER A 101      12.406   3.303  51.001  1.00 47.65     0.219 C 
ATOM     19  CB  SER A 101      13.190   3.322  52.316  1.00 49.57     0.216 C 
ATOM     20  OG  SER A 101      13.784   4.569  52.637  1.00 54.41    -0.218 OA
ATOM     21  CA  VAL A 102      10.122   0.251  50.319  1.00 45.51     0.186 C 
ATOM     22  CB  VAL A 102       8.740  -0.096  50.947  1.00 49.19     0.032 C 
ATOM     23  CG1 VAL A 102       8.575   0.568  52.311  1.00 48.60     0.003 C 
ATOM     24  CG2 VAL A 102       7.594   0.311  50.022  1.00 48.10     0.003 C 
ATOM     25  CA  TYR A 105      14.000  -1.737  47.254  1.00 43.40     0.191 C 
ATOM     26  CB  TYR A 105      13.781  -2.368  48.630  1.00 43.23     0.060 C 
ATOM     27  CG  TYR A 105      13.332  -3.814  48.603  1.00 42.60    -0.020 A 
ATOM     28  CD2 TYR A 105      11.995  -4.150  48.794  1.00 43.44    -0.002 A 
ATOM     29  CE2 TYR A 105      11.561  -5.470  48.710  1.00 43.57     0.027 A 
ATOM     30  CZ  TYR A 105      12.465  -6.475  48.410  1.00 47.42     0.131 A 
ATOM     31  OH  TYR A 105      12.019  -7.772  48.315  1.00 47.92    -0.190 OA
ATOM     32  CE1 TYR A 105      13.801  -6.167  48.216  1.00 40.45     0.027 A 
ATOM     33  CD1 TYR A 105      14.223  -4.839  48.291  1.00 42.63    -0.002 A 
ATOM     34  CA  PHE A 106      11.158  -3.179  45.107  1.00 51.18     0.191 C 
ATOM     35  CB  PHE A 106       9.636  -3.197  45.400  1.00 55.17     0.060 C 
ATOM     36  CG  PHE A 106       9.098  -2.873  46.776  1.00 59.28    -0.020 A 
ATOM     37  CD1 PHE A 106       8.104  -1.912  46.944  1.00 63.24    -0.004 A 
ATOM     38  CE1 PHE A 106       7.580  -1.634  48.208  1.00 66.24    -0.000 A 
ATOM     39  CZ  PHE A 106       7.983  -2.377  49.299  1.00 67.24    -0.000 A 
ATOM     40  CE2 PHE A 106       8.916  -3.381  49.144  1.00 68.40    -0.000 A 
ATOM     41  CD2 PHE A 106       9.459  -3.642  47.876  1.00 63.30    -0.004 A 
ATOM     42  CA  TYR A 109      15.002  -5.824  42.359  1.00 44.32     0.191 C 
ATOM     43  CB  TYR A 109      14.401  -6.700  43.474  1.00 43.91     0.060 C 
ATOM     44  CG  TYR A 109      13.832  -7.964  42.869  1.00 41.58    -0.020 A 
ATOM     45  CD1 TYR A 109      14.163  -8.348  41.571  1.00 42.10    -0.002 A 
ATOM     46  CE1 TYR A 109      13.722  -9.560  41.038  1.00 39.95     0.027 A 
ATOM     47  CZ  TYR A 109      12.971 -10.423  41.817  1.00 44.86     0.131 A 
ATOM     48  CE2 TYR A 109      12.647 -10.075  43.117  1.00 40.45     0.027 A 
ATOM     49  OH  TYR A 109      12.525 -11.607  41.287  1.00 45.89    -0.190 OA
ATOM     50  CD2 TYR A 109      13.097  -8.861  43.642  1.00 41.38    -0.002 A 
ATOM     51  CA  MET A 152       7.849  -7.115  43.442  1.00 60.44     0.187 C 
ATOM     52  CB  MET A 152       8.864  -6.222  42.718  1.00 62.10     0.046 C 
ATOM     53  CG  MET A 152       9.988  -5.753  43.601  1.00 64.63     0.060 C 
ATOM     54  SD  MET A 152      10.366  -6.817  45.012  1.00 66.98    -0.139 SA
ATOM     55  CE  MET A 152      11.940  -6.120  45.444  1.00 63.83     0.069 C 
ATOM     56  CA  LEU A 155       6.206  -8.638  48.212  1.00 59.11     0.186 C 
ATOM     57  CB  LEU A 155       7.625  -9.014  47.738  1.00 57.66     0.034 C 
ATOM     58  CG  LEU A 155       8.820  -8.185  48.191  1.00 61.82     0.002 C 
ATOM     59  CD2 LEU A 155       9.101  -7.032  47.236  1.00 63.41     0.000 C 
ATOM     60  CD1 LEU A 155      10.037  -9.062  48.282  1.00 60.03     0.000 C 
ATOM     61  CA  SER A 156       6.509  -4.864  48.930  1.00 56.90     0.219 C 
ATOM     62  CB  SER A 156       6.789  -3.832  47.837  1.00 60.21     0.216 C 
ATOM     63  OG  SER A 156       6.177  -4.123  46.588  1.00 67.39    -0.218 OA
ATOM     64  CA  ASN A 159       6.123  -4.191  54.295  1.00 52.94     0.196 C 
ATOM     65  CB  ASN A 159       7.426  -4.124  53.463  1.00 50.55     0.126 C 
ATOM     66  CG  ASN A 159       8.349  -2.963  53.750  1.00 57.65     0.276 C 
ATOM     67  OD1 ASN A 159       9.152  -2.582  52.911  1.00 61.23    -0.269 OA
ATOM     68  ND2 ASN A 159       8.227  -2.322  54.901  1.00 42.85    -0.107 N 
ATOM     69  CA  THR A 163       5.150  -0.592  59.487  1.00 57.53     0.216 C 
ATOM     70  CB  THR A 163       6.083   0.047  58.432  1.00 61.43     0.184 C 
ATOM     71  OG1 THR A 163       6.241   1.429  58.722  1.00 59.66    -0.221 OA
ATOM     72  CG2 THR A 163       5.566  -0.108  57.010  1.00 57.38     0.038 C 
ATOM     73  CA  LYS A 173      15.330   6.284  63.552  1.00 57.57     0.186 C 
ATOM     74  CB  LYS A 173      16.293   7.171  62.738  1.00 59.52     0.034 C 
ATOM     75  CG  LYS A 173      16.525   6.739  61.296  1.00 65.83     0.005 C 
ATOM     76  CD  LYS A 173      17.880   6.043  61.141  1.00 71.51     0.041 C 
ATOM     77  CE  LYS A 173      18.325   5.840  59.709  1.00 69.08     0.338 C 
ATOM     78  NZ  LYS A 173      18.288   7.102  58.923  1.00 69.29     0.618 N 
ATOM     79  CA  LYS A 174      15.508   2.484  62.776  1.00 51.48     0.186 C 
ATOM     80  CB  LYS A 174      16.296   1.384  63.512  1.00 52.43     0.034 C 
ATOM     81  CG  LYS A 174      17.114   0.430  62.683  1.00 57.02     0.005 C 
ATOM     82  CD  LYS A 174      17.364   1.003  61.289  1.00 61.29     0.041 C 
ATOM     83  CE  LYS A 174      16.658   0.250  60.189  1.00 63.07     0.338 C 
ATOM     84  NZ  LYS A 174      15.896  -0.909  60.719  1.00 64.24     0.618 N 
ATOM     85  CA  CYS A 175      12.531   1.156  60.693  1.00 52.05     0.198 C 
ATOM     86  CB  CYS A 175      12.594   0.885  59.188  1.00 52.97     0.103 C 
ATOM     87  SG  CYS A 175      13.252  -0.744  58.737  1.00 58.19    -0.080 SA
ATOM     88  CA  SER A 176      12.543  -2.161  62.656  1.00 47.09     0.219 C 
ATOM     89  CB  SER A 176      13.797  -2.935  63.058  1.00 49.42     0.216 C 
ATOM     90  OG  SER A 176      13.488  -4.184  63.654  1.00 57.35    -0.218 OA
ATOM     91  CA  LYS A 179       7.152  -2.688  62.727  1.00 48.92     0.186 C 
ATOM     92  CB  LYS A 179       8.163  -3.565  61.966  1.00 50.09     0.034 C 
ATOM     93  CG  LYS A 179       9.199  -2.734  61.227  1.00 55.91     0.005 C 
ATOM     94  CD  LYS A 179       8.589  -1.580  60.494  1.00 55.19     0.041 C 
ATOM     95  CE  LYS A 179       9.666  -0.602  60.126  1.00 53.09     0.338 C 
ATOM     96  NZ  LYS A 179       9.568  -0.159  58.712  1.00 49.98     0.618 N 
ATOM     97  CA  HIS A 187      10.766  -8.273  56.477  1.00 45.14     0.192 C 
ATOM     98  CB  HIS A 187      11.101  -7.312  57.639  1.00 44.58     0.082 C 
ATOM     99  CG  HIS A 187       9.974  -6.402  58.023  1.00 46.33     0.082 A 
ATOM    100  ND1 HIS A 187       9.833  -5.935  59.317  1.00 47.66    -0.227 NA
ATOM    101  CE1 HIS A 187       8.754  -5.172  59.307  1.00 45.53     0.199 A 
ATOM    102  NE2 HIS A 187       8.197  -5.131  58.099  1.00 45.13    -0.221 NA
ATOM    103  CD2 HIS A 187       8.964  -5.909  57.271  1.00 46.10     0.116 A 
ATOM    104  CA  VAL A 190      11.268 -10.574  51.763  1.00 49.37     0.186 C 
ATOM    105  CB  VAL A 190      10.556  -9.205  51.945  1.00 53.61     0.032 C 
ATOM    106  CG1 VAL A 190       9.200  -9.350  52.605  1.00 53.25     0.003 C 
ATOM    107  CG2 VAL A 190      11.422  -8.258  52.752  1.00 54.78     0.003 C 
ATOM    108  CA  ASN A 191      15.033 -10.052  52.403  1.00 41.57     0.196 C 
ATOM    109  CB  ASN A 191      15.643  -9.498  53.680  1.00 36.18     0.126 C 
ATOM    110  CG  ASN A 191      15.666 -10.543  54.771  1.00 51.01     0.276 C 
ATOM    111  OD1 ASN A 191      16.051 -11.696  54.565  1.00 48.94    -0.269 OA
ATOM    112  ND2 ASN A 191      15.329 -10.154  55.973  1.00 41.78    -0.107 N 
ATOM    113  CA  CYS A 194      15.509 -10.879  47.360  1.00 42.51     0.198 C 
ATOM    114  CB  CYS A 194      15.406  -9.501  47.992  1.00 42.24     0.103 C 
ATOM    115  SG  CYS A 194      16.744  -9.164  49.162  1.00 47.54    -0.080 SA
ATOM    116  CA  ARG A 256      22.497  -7.543  54.070  1.00 40.71     0.186 C 
ATOM    117  CB  ARG A 256      21.648  -7.737  52.800  1.00 38.64     0.036 C 
ATOM    118  CG  ARG A 256      21.154  -9.176  52.643  1.00 42.53     0.029 C 
ATOM    119  CD  ARG A 256      19.704  -9.350  53.096  1.00 44.33     0.145 C 
ATOM    120  NE  ARG A 256      19.218 -10.722  52.966  1.00 40.66    -0.083 NA
ATOM    121  CZ  ARG A 256      18.945 -11.519  53.993  1.00 52.38     0.782 C 
ATOM    122  NH1 ARG A 256      19.092 -11.085  55.239  1.00 37.43     0.063 N 
ATOM    123  NH2 ARG A 256      18.506 -12.751  53.784  1.00 45.57     0.063 N 
ATOM    124  CA  TYR A 259      22.125  -6.560  59.107  1.00 36.70     0.191 C 
ATOM    125  CB  TYR A 259      22.302  -5.448  58.050  1.00 36.37     0.060 C 
ATOM    126  CG  TYR A 259      21.322  -5.594  56.904  1.00 37.29    -0.020 A 
ATOM    127  CD2 TYR A 259      21.488  -4.878  55.721  1.00 37.84    -0.002 A 
ATOM    128  CE2 TYR A 259      20.622  -5.054  54.640  1.00 39.35     0.027 A 
ATOM    129  CZ  TYR A 259      19.594  -5.984  54.727  1.00 44.59     0.131 A 
ATOM    130  OH  TYR A 259      18.723  -6.195  53.691  1.00 41.50    -0.190 OA
ATOM    131  CE1 TYR A 259      19.446  -6.743  55.872  1.00 38.92     0.027 A 
ATOM    132  CD1 TYR A 259      20.311  -6.552  56.947  1.00 39.21    -0.002 A 
ATOM    133  CA  GLN A 263      16.853  -5.928  62.804  1.00 41.02     0.187 C 
ATOM    134  CB  GLN A 263      16.534  -5.555  61.339  1.00 41.50     0.044 C 
ATOM    135  CG  GLN A 263      15.491  -6.421  60.637  1.00 37.86     0.094 C 
ATOM    136  CD  GLN A 263      14.105  -5.816  60.763  1.00 48.33     0.274 C 
ATOM    137  OE1 GLN A 263      13.160  -6.452  61.249  1.00 42.79    -0.269 OA
ATOM    138  NE2 GLN A 263      13.936  -4.581  60.309  1.00 33.55    -0.107 N 
ATOM    139  CA  PHE A 277      24.046  -0.281  59.829  1.00 37.48     0.191 C 
ATOM    140  CB  PHE A 277      23.381   0.613  60.894  1.00 38.98     0.060 C 
ATOM    141  CG  PHE A 277      22.275  -0.083  61.660  1.00 40.06    -0.020 A 
ATOM    142  CD1 PHE A 277      20.942   0.267  61.466  1.00 41.47    -0.004 A 
ATOM    143  CE1 PHE A 277      19.925  -0.369  62.178  1.00 41.97    -0.000 A 
ATOM    144  CZ  PHE A 277      20.237  -1.353  63.089  1.00 41.82    -0.000 A 
ATOM    145  CE2 PHE A 277      21.549  -1.719  63.294  1.00 44.30    -0.000 A 
ATOM    146  CD2 PHE A 277      22.568  -1.080  62.587  1.00 41.93    -0.004 A 
ATOM    147  CA  LYS A 280      24.627  -1.514  54.783  1.00 38.25     0.186 C 
ATOM    148  CB  LYS A 280      23.432  -2.191  55.492  1.00 39.37     0.034 C 
ATOM    149  CG  LYS A 280      23.027  -3.557  54.976  1.00 48.63     0.005 C 
ATOM    150  CD  LYS A 280      24.128  -4.240  54.173  1.00 43.59     0.041 C 
ATOM    151  CE  LYS A 280      23.959  -3.850  52.727  1.00 39.84     0.338 C 
ATOM    152  NZ  LYS A 280      25.155  -3.201  52.159  1.00 34.79     0.618 N 
ENDMDL
REMARK VINA RESULT:       5.8      1.721      2.481
REMARK  14 active torsions:
REMARK  status: ('A' for Active; 'I' for Inactive)
REMARK    1  A    between atoms: C_3  and  C_21 
REMARK    2  A    between atoms: C_3  and  O_17 
REMARK    3  A    between atoms: C_8  and  N_27 
REMARK    4  A    between atoms: O_12  and  C_20 
REMARK    5  A    between atoms: O_13  and  C_22 
REMARK    6  A    between atoms: O_14  and  P_32 
REMARK    7  A    between atoms: O_15  and  P_33 
REMARK    8  A    between atoms: O_16  and  P_33 
REMARK    9  A    between atoms: O_17  and  P_31 
REMARK   10  A    between atoms: O_18  and  P_31 
REMARK   11  A    between atoms: O_18  and  P_32 
REMARK   12  A    between atoms: C_19  and  N_36 
REMARK   13  A    between atoms: S_37  and  P_31 
REMARK   14  A    between atoms: P_33  and  P_32 
REMARK  4 active torsions:
REMARK  status: ('A' for Active; 'I' for Inactive)
REMARK    1  A    between atoms: CA   and  CB  
REMARK    2  A    between atoms: CB   and  CG  
REMARK    3  A    between atoms: CG   and  CD  
REMARK    4  A    between atoms: CD   and  NE  
REMARK       I    between atoms: NE   and  CZ  
REMARK  2 active torsions:
REMARK  status: ('A' for Active; 'I' for Inactive)
REMARK    5  A    between atoms: CA   and  CB  
REMARK    6  A    between atoms: CB   and  SG  
REMARK  3 active torsions:
REMARK  status: ('A' for Active; 'I' for Inactive)
REMARK    7  A    between atoms: CA   and  CB  
REMARK    8  A    between atoms: CB   and  CG  
REMARK    9  A    between atoms: CG   and  CD  
REMARK  1 active torsions:
REMARK  status: ('A' for Active; 'I' for Inactive)
REMARK   10  A    between atoms: CA   and  CB  
REMARK  1 active torsions:
REMARK  status: ('A' for Active; 'I' for Inactive)
REMARK   11  A    between atoms: CA   and  CB  
REMARK  2 active torsions:
REMARK  status: ('A' for Active; 'I' for Inactive)
REMARK   12  A    between atoms: CA   and  CB  
REMARK   13  A    between atoms: CB   and  CG  
REMARK  2 active torsions:
REMARK  status: ('A' for Active; 'I' for Inactive)
REMARK   14  A    between atoms: CA   and  CB  
REMARK   15  A    between atoms: CB   and  CG  
REMARK  2 active torsions:
REMARK  status: ('A' for Active; 'I' for Inactive)
REMARK   16  A    between atoms: CA   and  CB  
REMARK   17  A    between atoms: CB   and  CG  
REMARK  3 active torsions:
REMARK  status: ('A' for Active; 'I' for Inactive)
REMARK   18  A    between atoms: CA   and  CB  
REMARK   19  A    between atoms: CB   and  CG  
REMARK   20  A    between atoms: CG   and  SD  
REMARK  2 active torsions:
REMARK  status: ('A' for Active; 'I' for Inactive)
REMARK   21  A    between atoms: CA   and  CB  
REMARK   22  A    between atoms: CB   and  CG  
REMARK  1 active torsions:
REMARK  status: ('A' for Active; 'I' for Inactive)
REMARK   23  A    between atoms: CA   and  CB  
REMARK  2 active torsions:
REMARK  status: ('A' for Active; 'I' for Inactive)
REMARK   24  A    between atoms: CA   and  CB  
REMARK   25  A    between atoms: CB   and  CG  
REMARK  1 active torsions:
REMARK  status: ('A' for Active; 'I' for Inactive)
REMARK   26  A    between atoms: CA   and  CB  
REMARK  4 active torsions:
REMARK  status: ('A' for Active; 'I' for Inactive)
REMARK   27  A    between atoms: CA   and  CB  
REMARK   28  A    between atoms: CB   and  CG  
REMARK   29  A    between atoms: CG   and  CD  
REMARK   30  A    between atoms: CD   and  CE  
REMARK  4 active torsions:
REMARK  status: ('A' for Active; 'I' for Inactive)
REMARK   31  A    between atoms: CA   and  CB  
REMARK   32  A    between atoms: CB   and  CG  
REMARK   33  A    between atoms: CG   and  CD  
REMARK   34  A    between atoms: CD   and  CE  
REMARK  2 active torsions:
REMARK  status: ('A' for Active; 'I' for Inactive)
REMARK   35  A    between atoms: CA   and  CB  
REMARK   36  A    between atoms: CB   and  SG  
REMARK  1 active torsions:
REMARK  status: ('A' for Active; 'I' for Inactive)
REMARK   37  A    between atoms: CA   and  CB  
REMARK  4 active torsions:
REMARK  status: ('A' for Active; 'I' for Inactive)
REMARK   38  A    between atoms: CA   and  CB  
REMARK   39  A    between atoms: CB   and  CG  
REMARK   40  A    between atoms: CG   and  CD  
REMARK   41  A    between atoms: CD   and  CE  
REMARK  2 active torsions:
REMARK  status: ('A' for Active; 'I' for Inactive)
REMARK   42  A    between atoms: CA   and  CB  
REMARK   43  A    between atoms: CB   and  CG  
REMARK  1 active torsions:
REMARK  status: ('A' for Active; 'I' for Inactive)
REMARK   44  A    between atoms: CA   and  CB  
REMARK  2 active torsions:
REMARK  status: ('A' for Active; 'I' for Inactive)
REMARK   45  A    between atoms: CA   and  CB  
REMARK   46  A    between atoms: CB   and  CG  
REMARK  1 active torsions:
REMARK  status: ('A' for Active; 'I' for Inactive)
REMARK   47  A    between atoms: CA   and  CB  
REMARK  4 active torsions:
REMARK  status: ('A' for Active; 'I' for Inactive)
REMARK   48  A    between atoms: CA   and  CB  
REMARK   49  A    between atoms: CB   and  CG  
REMARK   50  A    between atoms: CG   and  CD  
REMARK   51  A    between atoms: CD   and  NE  
REMARK       I    between atoms: NE   and  CZ  
REMARK  2 active torsions:
REMARK  status: ('A' for Active; 'I' for Inactive)
REMARK   52  A    between atoms: CA   and  CB  
REMARK   53  A    between atoms: CB   and  CG  
REMARK  3 active torsions:
REMARK  status: ('A' for Active; 'I' for Inactive)
REMARK   54  A    between atoms: CA   and  CB  
REMARK   55  A    between atoms: CB   and  CG  
REMARK   56  A    between atoms: CG   and  CD  
REMARK  2 active torsions:
REMARK  status: ('A' for Active; 'I' for Inactive)
REMARK   57  A    between atoms: CA   and  CB  
REMARK   58  A    between atoms: CB   and  CG  
REMARK  4 active torsions:
REMARK  status: ('A' for Active; 'I' for Inactive)
REMARK   59  A    between atoms: CA   and  CB  
REMARK   60  A    between atoms: CB   and  CG  
REMARK   61  A    between atoms: CG   and  CD  
REMARK   62  A    between atoms: CD   and  CE  
REMARK viewdock state: D
ATOM      1  C   LIG d 111      11.580  -1.286  54.012  0.00  0.00     0.434 A 
ATOM      2  C   LIG d 111      14.385  -4.538  53.228  0.00  0.00     0.230 A 
ATOM      3  C   LIG d 111      12.268  -4.295  52.309  0.00  0.00     0.152 A 
ATOM      4  N   LIG d 111      14.394  -3.404  53.964  0.00  0.00    -0.173 NA
ATOM      5  N   LIG d 111      11.125  -2.188  53.167  0.00  0.00    -0.182 NA
ATOM      6  N   LIG d 111      13.407  -5.014  52.429  0.00  0.00    -0.218 NA
ATOM      7  C   LIG d 111      13.230  -2.742  53.827  0.00  0.00     0.339 A 
ATOM      8  C   LIG d 111      12.146  -3.105  53.045  0.00  0.00     0.201 A 
ATOM      9  N   LIG d 111      12.860  -1.563  54.419  0.00  0.00    -0.132 N 
ATOM     10  C   LIG d 111      13.667  -0.798  55.353  0.00  0.00     0.443 C 
ATOM     11  O   LIG d 111      14.620  -0.003  54.615  0.00  0.00    -0.309 OA
ATOM     12  C   LIG d 111      15.907  -0.104  55.268  0.00  0.00     0.182 C 
ATOM     13  C   LIG d 111      15.657  -0.751  56.623  0.00  0.00     0.183 C 
ATOM     14  C   LIG d 111      14.486  -1.665  56.318  0.00  0.00     0.244 C 
ATOM     15  C   LIG d 111      16.546   1.279  55.341  0.00  0.00     0.203 C 
ATOM     16  O   LIG d 111      16.020   2.088  54.288  0.00  0.00    -0.321 OA
ATOM     17  P   LIG d 111      17.026   2.650  53.138  0.00  0.00     0.234 P 
ATOM     18  S   LIG d 111      18.892   2.316  53.571  0.00  0.00     0.003 SA
ATOM     19  O   LIG d 111      16.673   4.215  53.319  0.00  0.00    -0.238 OA
ATOM     20  P   LIG d 111      16.309   4.922  54.713  0.00  0.00     0.445 P 
ATOM     21  O   LIG d 111      15.935   6.363  54.485  0.00  0.00    -0.245 OA
ATOM     22  O   LIG d 111      14.938   4.128  55.074  0.00  0.00    -0.316 OA
ATOM     23  H   LIG d 111      14.310   4.705  55.549  0.00  0.00     0.220 HD
ATOM     24  P   LIG d 111      17.976   4.643  56.393  0.00  0.00     0.438 P 
ATOM     25  O   LIG d 111      17.514   3.761  57.517  0.00  0.00    -0.246 OA
ATOM     26  O   LIG d 111      18.526   6.038  56.990  0.00  0.00    -0.316 OA
ATOM     27  H   LIG d 111      19.499   6.082  56.904  0.00  0.00     0.220 HD
ATOM     28  O   LIG d 111      19.383   4.110  55.794  0.00  0.00    -0.316 OA
ATOM     29  H   LIG d 111      19.331   3.803  54.870  0.00  0.00     0.220 HD
ATOM     30  S   LIG d  11      16.206   2.019  51.310  0.00  0.00    -0.091 SA
ATOM     31  H   LIG d  11      15.263   1.235  51.846  0.00  0.00     0.111 HD
ATOM     32  O   LIG d 111      15.268   0.211  57.608  0.00  0.00    -0.386 OA
ATOM     33  H   LIG d 111      14.387  -0.084  57.921  0.00  0.00     0.210 HD
ATOM     34  O   LIG d 111      13.810  -2.004  57.530  0.00  0.00    -0.380 OA
ATOM     35  H   LIG d 111      14.234  -1.473  58.240  0.00  0.00     0.210 HD
ATOM     36  N   LIG d 111      11.265  -4.784  51.481  0.00  0.00    -0.341 NA
ATOM     37  H   LIG d 111      11.580  -5.539  50.880  0.00  0.00     0.144 HD
ATOM     38  H   LIG d 111      10.732  -4.039  51.051  0.00  0.00     0.144 HD
ATOM      1  CA  ARG A  93      11.357   9.429  58.493  1.00 59.89     0.186 C 
ATOM      2  CB  ARG A  93      12.236   9.564  59.757  1.00 58.23     0.036 C 
ATOM      3  CG  ARG A  93      12.540   8.255  60.509  1.00 60.51     0.029 C 
ATOM      4  CD  ARG A  93      11.397   7.737  61.380  1.00 61.21     0.145 C 
ATOM      5  NE  ARG A  93      11.791   6.529  62.109  1.00 60.36    -0.083 NA
ATOM      6  CZ  ARG A  93      11.201   6.074  63.212  1.00 66.21     0.782 C 
ATOM      7  NH2 ARG A  93      11.637   4.966  63.793  1.00 48.93     0.063 N 
ATOM      8  NH1 ARG A  93      10.175   6.728  63.747  1.00 52.54     0.063 N 
ATOM      9  CA  CYS A  97      10.408   3.635  56.475  1.00 55.45     0.198 C 
ATOM     10  CB  CYS A  97      10.309   3.703  57.996  1.00 56.61     0.103 C 
ATOM     11  SG  CYS A  97       8.680   3.273  58.657  1.00 59.92    -0.080 SA
ATOM     12  CA  GLN A  98       6.821   2.814  55.435  1.00 57.21     0.187 C 
ATOM     13  CB  GLN A  98       5.702   3.596  56.134  1.00 60.72     0.044 C 
ATOM     14  CG  GLN A  98       5.954   5.066  56.416  1.00 78.15     0.094 C 
ATOM     15  CD  GLN A  98       4.881   5.944  55.820  1.00 97.60     0.274 C 
ATOM     16  OE1 GLN A  98       4.328   6.846  56.468  1.00 90.91    -0.269 OA
ATOM     17  NE2 GLN A  98       4.559   5.691  54.563  1.00 94.53    -0.107 N 
ATOM     18  CA  SER A 101      12.406   3.303  51.001  1.00 47.65     0.219 C 
ATOM     19  CB  SER A 101      13.190   3.322  52.316  1.00 49.57     0.216 C 
ATOM     20  OG  SER A 101      14.030   4.451  52.492  1.00 54.41    -0.218 OA
ATOM     21  CA  VAL A 102      10.122   0.251  50.319  1.00 45.51     0.186 C 
ATOM     22  CB  VAL A 102       8.740  -0.096  50.947  1.00 49.19     0.032 C 
ATOM     23  CG1 VAL A 102       8.564   0.589  52.300  1.00 48.60     0.003 C 
ATOM     24  CG2 VAL A 102       7.595   0.288  50.011  1.00 48.10     0.003 C 
ATOM     25  CA  TYR A 105      14.000  -1.737  47.254  1.00 43.40     0.191 C 
ATOM     26  CB  TYR A 105      13.781  -2.368  48.630  1.00 43.23     0.060 C 
ATOM     27  CG  TYR A 105      13.355  -3.821  48.604  1.00 42.60    -0.020 A 
ATOM     28  CD2 TYR A 105      14.248  -4.833  48.942  1.00 43.44    -0.002 A 
ATOM     29  CE2 TYR A 105      13.850  -6.166  48.981  1.00 43.57     0.027 A 
ATOM     30  CZ  TYR A 105      12.536  -6.502  48.700  1.00 47.42     0.131 A 
ATOM     31  OH  TYR A 105      12.154  -7.822  48.758  1.00 47.92    -0.190 OA
ATOM     32  CE1 TYR A 105      11.628  -5.514  48.361  1.00 40.45     0.027 A 
ATOM     33  CD1 TYR A 105      12.035  -4.179  48.337  1.00 42.63    -0.002 A 
ATOM     34  CA  PHE A 106      11.158  -3.179  45.107  1.00 51.18     0.191 C 
ATOM     35  CB  PHE A 106       9.636  -3.197  45.400  1.00 55.17     0.060 C 
ATOM     36  CG  PHE A 106       9.099  -2.875  46.776  1.00 59.28    -0.020 A 
ATOM     37  CD1 PHE A 106       8.096  -1.921  46.945  1.00 63.24    -0.004 A 
ATOM     38  CE1 PHE A 106       7.574  -1.646  48.210  1.00 66.24    -0.000 A 
ATOM     39  CZ  PHE A 106       7.984  -2.384  49.301  1.00 67.24    -0.000 A 
ATOM     40  CE2 PHE A 106       8.925  -3.381  49.145  1.00 68.40    -0.000 A 
ATOM     41  CD2 PHE A 106       9.467  -3.640  47.877  1.00 63.30    -0.004 A 
ATOM     42  CA  TYR A 109      15.002  -5.824  42.359  1.00 44.32     0.191 C 
ATOM     43  CB  TYR A 109      14.401  -6.700  43.474  1.00 43.91     0.060 C 
ATOM     44  CG  TYR A 109      13.982  -8.034  42.895  1.00 41.58    -0.020 A 
ATOM     45  CD1 TYR A 109      13.054  -8.838  43.552  1.00 42.10    -0.002 A 
ATOM     46  CE1 TYR A 109      12.588 -10.024  42.981  1.00 39.95     0.027 A 
ATOM     47  CZ  TYR A 109      13.023 -10.398  41.721  1.00 44.86     0.131 A 
ATOM     48  CE2 TYR A 109      13.929  -9.605  41.038  1.00 40.45     0.027 A 
ATOM     49  OH  TYR A 109      12.577 -11.572  41.167  1.00 45.89    -0.190 OA
ATOM     50  CD2 TYR A 109      14.385  -8.418  41.618  1.00 41.38    -0.002 A 
ATOM     51  CA  MET A 152       7.849  -7.115  43.442  1.00 60.44     0.187 C 
ATOM     52  CB  MET A 152       8.864  -6.222  42.718  1.00 62.10     0.046 C 
ATOM     53  CG  MET A 152      10.028  -5.815  43.580  1.00 64.63     0.060 C 
ATOM     54  SD  MET A 152      10.344  -6.872  45.012  1.00 66.98    -0.139 SA
ATOM     55  CE  MET A 152      11.927  -6.214  45.471  1.00 63.83     0.069 C 
ATOM     56  CA  LEU A 155       6.206  -8.638  48.212  1.00 59.11     0.186 C 
ATOM     57  CB  LEU A 155       7.625  -9.014  47.738  1.00 57.66     0.034 C 
ATOM     58  CG  LEU A 155       8.804  -8.113  48.086  1.00 61.82     0.002 C 
ATOM     59  CD2 LEU A 155       8.709  -7.587  49.512  1.00 63.41     0.000 C 
ATOM     60  CD1 LEU A 155       8.850  -6.954  47.131  1.00 60.03     0.000 C 
ATOM     61  CA  SER A 156       6.509  -4.864  48.930  1.00 56.90     0.219 C 
ATOM     62  CB  SER A 156       6.789  -3.832  47.837  1.00 60.21     0.216 C 
ATOM     63  OG  SER A 156       6.246  -4.164  46.567  1.00 67.39    -0.218 OA
ATOM     64  CA  ASN A 159       6.123  -4.191  54.295  1.00 52.94     0.196 C 
ATOM     65  CB  ASN A 159       7.426  -4.124  53.463  1.00 50.55     0.126 C 
ATOM     66  CG  ASN A 159       8.297  -2.907  53.673  1.00 57.65     0.276 C 
ATOM     67  OD1 ASN A 159       9.098  -2.558  52.818  1.00 61.23    -0.269 OA
ATOM     68  ND2 ASN A 159       8.130  -2.187  54.770  1.00 42.85    -0.107 N 
ATOM     69  CA  THR A 163       5.150  -0.592  59.487  1.00 57.53     0.216 C 
ATOM     70  CB  THR A 163       6.083   0.047  58.432  1.00 61.43     0.184 C 
ATOM     71  OG1 THR A 163       7.422  -0.350  58.690  1.00 59.66    -0.221 OA
ATOM     72  CG2 THR A 163       6.008   1.566  58.415  1.00 57.38     0.038 C 
ATOM     73  CA  LYS A 173      15.330   6.284  63.552  1.00 57.57     0.186 C 
ATOM     74  CB  LYS A 173      16.293   7.171  62.738  1.00 59.52     0.034 C 
ATOM     75  CG  LYS A 173      16.500   6.758  61.287  1.00 65.83     0.005 C 
ATOM     76  CD  LYS A 173      17.906   6.195  61.069  1.00 71.51     0.041 C 
ATOM     77  CE  LYS A 173      17.944   4.780  60.532  1.00 69.08     0.338 C 
ATOM     78  NZ  LYS A 173      18.772   3.879  61.376  1.00 69.29     0.618 N 
ATOM     79  CA  LYS A 174      15.508   2.484  62.776  1.00 51.48     0.186 C 
ATOM     80  CB  LYS A 174      16.296   1.384  63.512  1.00 52.43     0.034 C 
ATOM     81  CG  LYS A 174      16.969   0.325  62.681  1.00 57.02     0.005 C 
ATOM     82  CD  LYS A 174      16.593   0.474  61.207  1.00 61.29     0.041 C 
ATOM     83  CE  LYS A 174      17.602   1.253  60.400  1.00 63.07     0.338 C 
ATOM     84  NZ  LYS A 174      17.244   1.285  58.960  1.00 64.24     0.618 N 
ATOM     85  CA  CYS A 175      12.531   1.156  60.693  1.00 52.05     0.198 C 
ATOM     86  CB  CYS A 175      12.594   0.885  59.188  1.00 52.97     0.103 C 
ATOM     87  SG  CYS A 175      11.131   0.061  58.504  1.00 58.19    -0.080 SA
ATOM     88  CA  SER A 176      12.543  -2.161  62.656  1.00 47.09     0.219 C 
ATOM     89  CB  SER A 176      13.797  -2.935  63.058  1.00 49.42     0.216 C 
ATOM     90  OG  SER A 176      14.864  -2.739  62.145  1.00 57.35    -0.218 OA
ATOM     91  CA  LYS A 179       7.152  -2.688  62.727  1.00 48.92     0.186 C 
ATOM     92  CB  LYS A 179       8.163  -3.565  61.966  1.00 50.09     0.034 C 
ATOM     93  CG  LYS A 179       8.617  -4.760  62.788  1.00 55.91     0.005 C 
ATOM     94  CD  LYS A 179       9.686  -4.404  63.772  1.00 55.19     0.041 C 
ATOM     95  CE  LYS A 179       9.091  -4.336  65.148  1.00 53.09     0.338 C 
ATOM     96  NZ  LYS A 179       8.585  -5.654  65.610  1.00 49.98     0.618 N 
ATOM     97  CA  HIS A 187      10.766  -8.273  56.477  1.00 45.14     0.192 C 
ATOM     98  CB  HIS A 187      11.101  -7.312  57.639  1.00 44.58     0.082 C 
ATOM     99  CG  HIS A 187      10.915  -5.862  57.306  1.00 46.33     0.082 A 
ATOM    100  ND1 HIS A 187      10.396  -5.464  56.088  1.00 47.66    -0.227 NA
ATOM    101  CE1 HIS A 187      10.370  -4.143  56.125  1.00 45.53     0.199 A 
ATOM    102  NE2 HIS A 187      10.843  -3.678  57.278  1.00 45.13    -0.221 NA
ATOM    103  CD2 HIS A 187      11.193  -4.763  58.040  1.00 46.10     0.116 A 
ATOM    104  CA  VAL A 190      11.268 -10.574  51.763  1.00 49.37     0.186 C 
ATOM    105  CB  VAL A 190      10.556  -9.205  51.945  1.00 53.61     0.032 C 
ATOM    106  CG1 VAL A 190       9.277  -9.329  52.746  1.00 53.25     0.003 C 
ATOM    107  CG2 VAL A 190      11.483  -8.207  52.609  1.00 54.78     0.003 C 
ATOM    108  CA  ASN A 191      15.033 -10.052  52.403  1.00 41.57     0.196 C 
ATOM    109  CB  ASN A 191      15.643  -9.498  53.680  1.00 36.18     0.126 C 
ATOM    110  CG  ASN A 191      16.503 -10.533  54.367  1.00 51.01     0.276 C 
ATOM    111  OD1 ASN A 191      17.714 -10.626  54.152  1.00 48.94    -0.269 OA
ATOM    112  ND2 ASN A 191      15.923 -11.286  55.264  1.00 41.78    -0.107 N 
ATOM    113  CA  CYS A 194      15.509 -10.879  47.360  1.00 42.51     0.198 C 
ATOM    114  CB  CYS A 194      15.406  -9.501  47.992  1.00 42.24     0.103 C 
ATOM    115  SG  CYS A 194      16.358  -9.358  49.524  1.00 47.54    -0.080 SA
ATOM    116  CA  ARG A 256      22.497  -7.543  54.070  1.00 40.71     0.186 C 
ATOM    117  CB  ARG A 256      21.648  -7.737  52.800  1.00 38.64     0.036 C 
ATOM    118  CG  ARG A 256      20.912  -9.077  52.790  1.00 42.53     0.029 C 
ATOM    119  CD  ARG A 256      19.420  -8.923  52.493  1.00 44.33     0.145 C 
ATOM    120  NE  ARG A 256      19.044  -9.391  51.160  1.00 40.66    -0.083 NA
ATOM    121  CZ  ARG A 256      19.126  -8.655  50.058  1.00 52.38     0.782 C 
ATOM    122  NH1 ARG A 256      19.586  -7.411  50.112  1.00 37.43     0.063 N 
ATOM    123  NH2 ARG A 256      18.764  -9.160  48.889  1.00 45.57     0.063 N 
ATOM    124  CA  TYR A 259      22.125  -6.560  59.107  1.00 36.70     0.191 C 
ATOM    125  CB  TYR A 259      22.302  -5.448  58.050  1.00 36.37     0.060 C 
ATOM    126  CG  TYR A 259      20.972  -4.957  57.516  1.00 37.29    -0.020 A 
ATOM    127  CD2 TYR A 259      20.902  -4.205  56.346  1.00 37.84    -0.002 A 
ATOM    128  CE2 TYR A 259      19.674  -3.802  55.816  1.00 39.35     0.027 A 
ATOM    129  CZ  TYR A 259      18.496  -4.183  56.445  1.00 44.59     0.131 A 
ATOM    130  OH  TYR A 259      17.269  -3.815  55.961  1.00 41.50    -0.190 OA
ATOM    131  CE1 TYR A 259      18.543  -4.975  57.576  1.00 38.92     0.027 A 
ATOM    132  CD1 TYR A 259      19.774  -5.364  58.100  1.00 39.21    -0.002 A 
ATOM    133  CA  GLN A 263      16.853  -5.928  62.804  1.00 41.02     0.187 C 
ATOM    134  CB  GLN A 263      16.534  -5.555  61.339  1.00 41.50     0.044 C 
ATOM    135  CG  GLN A 263      15.485  -6.416  60.640  1.00 37.86     0.094 C 
ATOM    136  CD  GLN A 263      14.113  -5.774  60.717  1.00 48.33     0.274 C 
ATOM    137  OE1 GLN A 263      13.912  -4.620  60.315  1.00 42.79    -0.269 OA
ATOM    138  NE2 GLN A 263      13.134  -6.489  61.256  1.00 33.55    -0.107 N 
ATOM    139  CA  PHE A 277      24.046  -0.281  59.829  1.00 37.48     0.191 C 
ATOM    140  CB  PHE A 277      23.381   0.613  60.894  1.00 38.98     0.060 C 
ATOM    141  CG  PHE A 277      22.261  -0.076  61.645  1.00 40.06    -0.020 A 
ATOM    142  CD1 PHE A 277      20.940   0.338  61.495  1.00 41.47    -0.004 A 
ATOM    143  CE1 PHE A 277      19.910  -0.292  62.194  1.00 41.97    -0.000 A 
ATOM    144  CZ  PHE A 277      20.196  -1.333  63.047  1.00 41.82    -0.000 A 
ATOM    145  CE2 PHE A 277      21.495  -1.764  63.206  1.00 44.30    -0.000 A 
ATOM    146  CD2 PHE A 277      22.527  -1.131  62.513  1.00 41.93    -0.004 A 
ATOM    147  CA  LYS A 280      24.627  -1.514  54.783  1.00 38.25     0.186 C 
ATOM    148  CB  LYS A 280      23.432  -2.191  55.492  1.00 39.37     0.034 C 
ATOM    149  CG  LYS A 280      22.919  -3.476  54.872  1.00 48.63     0.005 C 
ATOM    150  CD  LYS A 280      24.004  -4.258  54.142  1.00 43.59     0.041 C 
ATOM    151  CE  LYS A 280      23.960  -3.866  52.687  1.00 39.84     0.338 C 
ATOM    152  NZ  LYS A 280      25.204  -3.227  52.221  1.00 34.79     0.618 N 
ENDMDL
REMARK VINA RESULT:       5.9      1.623      2.157
REMARK  14 active torsions:
REMARK  status: ('A' for Active; 'I' for Inactive)
REMARK    1  A    between atoms: C_3  and  C_21 
REMARK    2  A    between atoms: C_3  and  O_17 
REMARK    3  A    between atoms: C_8  and  N_27 
REMARK    4  A    between atoms: O_12  and  C_20 
REMARK    5  A    between atoms: O_13  and  C_22 
REMARK    6  A    between atoms: O_14  and  P_32 
REMARK    7  A    between atoms: O_15  and  P_33 
REMARK    8  A    between atoms: O_16  and  P_33 
REMARK    9  A    between atoms: O_17  and  P_31 
REMARK   10  A    between atoms: O_18  and  P_31 
REMARK   11  A    between atoms: O_18  and  P_32 
REMARK   12  A    between atoms: C_19  and  N_36 
REMARK   13  A    between atoms: S_37  and  P_31 
REMARK   14  A    between atoms: P_33  and  P_32 
REMARK  4 active torsions:
REMARK  status: ('A' for Active; 'I' for Inactive)
REMARK    1  A    between atoms: CA   and  CB  
REMARK    2  A    between atoms: CB   and  CG  
REMARK    3  A    between atoms: CG   and  CD  
REMARK    4  A    between atoms: CD   and  NE  
REMARK       I    between atoms: NE   and  CZ  
REMARK  2 active torsions:
REMARK  status: ('A' for Active; 'I' for Inactive)
REMARK    5  A    between atoms: CA   and  CB  
REMARK    6  A    between atoms: CB   and  SG  
REMARK  3 active torsions:
REMARK  status: ('A' for Active; 'I' for Inactive)
REMARK    7  A    between atoms: CA   and  CB  
REMARK    8  A    between atoms: CB   and  CG  
REMARK    9  A    between atoms: CG   and  CD  
REMARK  1 active torsions:
REMARK  status: ('A' for Active; 'I' for Inactive)
REMARK   10  A    between atoms: CA   and  CB  
REMARK  1 active torsions:
REMARK  status: ('A' for Active; 'I' for Inactive)
REMARK   11  A    between atoms: CA   and  CB  
REMARK  2 active torsions:
REMARK  status: ('A' for Active; 'I' for Inactive)
REMARK   12  A    between atoms: CA   and  CB  
REMARK   13  A    between atoms: CB   and  CG  
REMARK  2 active torsions:
REMARK  status: ('A' for Active; 'I' for Inactive)
REMARK   14  A    between atoms: CA   and  CB  
REMARK   15  A    between atoms: CB   and  CG  
REMARK  2 active torsions:
REMARK  status: ('A' for Active; 'I' for Inactive)
REMARK   16  A    between atoms: CA   and  CB  
REMARK   17  A    between atoms: CB   and  CG  
REMARK  3 active torsions:
REMARK  status: ('A' for Active; 'I' for Inactive)
REMARK   18  A    between atoms: CA   and  CB  
REMARK   19  A    between atoms: CB   and  CG  
REMARK   20  A    between atoms: CG   and  SD  
REMARK  2 active torsions:
REMARK  status: ('A' for Active; 'I' for Inactive)
REMARK   21  A    between atoms: CA   and  CB  
REMARK   22  A    between atoms: CB   and  CG  
REMARK  1 active torsions:
REMARK  status: ('A' for Active; 'I' for Inactive)
REMARK   23  A    between atoms: CA   and  CB  
REMARK  2 active torsions:
REMARK  status: ('A' for Active; 'I' for Inactive)
REMARK   24  A    between atoms: CA   and  CB  
REMARK   25  A    between atoms: CB   and  CG  
REMARK  1 active torsions:
REMARK  status: ('A' for Active; 'I' for Inactive)
REMARK   26  A    between atoms: CA   and  CB  
REMARK  4 active torsions:
REMARK  status: ('A' for Active; 'I' for Inactive)
REMARK   27  A    between atoms: CA   and  CB  
REMARK   28  A    between atoms: CB   and  CG  
REMARK   29  A    between atoms: CG   and  CD  
REMARK   30  A    between atoms: CD   and  CE  
REMARK  4 active torsions:
REMARK  status: ('A' for Active; 'I' for Inactive)
REMARK   31  A    between atoms: CA   and  CB  
REMARK   32  A    between atoms: CB   and  CG  
REMARK   33  A    between atoms: CG   and  CD  
REMARK   34  A    between atoms: CD   and  CE  
REMARK  2 active torsions:
REMARK  status: ('A' for Active; 'I' for Inactive)
REMARK   35  A    between atoms: CA   and  CB  
REMARK   36  A    between atoms: CB   and  SG  
REMARK  1 active torsions:
REMARK  status: ('A' for Active; 'I' for Inactive)
REMARK   37  A    between atoms: CA   and  CB  
REMARK  4 active torsions:
REMARK  status: ('A' for Active; 'I' for Inactive)
REMARK   38  A    between atoms: CA   and  CB  
REMARK   39  A    between atoms: CB   and  CG  
REMARK   40  A    between atoms: CG   and  CD  
REMARK   41  A    between atoms: CD   and  CE  
REMARK  2 active torsions:
REMARK  status: ('A' for Active; 'I' for Inactive)
REMARK   42  A    between atoms: CA   and  CB  
REMARK   43  A    between atoms: CB   and  CG  
REMARK  1 active torsions:
REMARK  status: ('A' for Active; 'I' for Inactive)
REMARK   44  A    between atoms: CA   and  CB  
REMARK  2 active torsions:
REMARK  status: ('A' for Active; 'I' for Inactive)
REMARK   45  A    between atoms: CA   and  CB  
REMARK   46  A    between atoms: CB   and  CG  
REMARK  1 active torsions:
REMARK  status: ('A' for Active; 'I' for Inactive)
REMARK   47  A    between atoms: CA   and  CB  
REMARK  4 active torsions:
REMARK  status: ('A' for Active; 'I' for Inactive)
REMARK   48  A    between atoms: CA   and  CB  
REMARK   49  A    between atoms: CB   and  CG  
REMARK   50  A    between atoms: CG   and  CD  
REMARK   51  A    between atoms: CD   and  NE  
REMARK       I    between atoms: NE   and  CZ  
REMARK  2 active torsions:
REMARK  status: ('A' for Active; 'I' for Inactive)
REMARK   52  A    between atoms: CA   and  CB  
REMARK   53  A    between atoms: CB   and  CG  
REMARK  3 active torsions:
REMARK  status: ('A' for Active; 'I' for Inactive)
REMARK   54  A    between atoms: CA   and  CB  
REMARK   55  A    between atoms: CB   and  CG  
REMARK   56  A    between atoms: CG   and  CD  
REMARK  2 active torsions:
REMARK  status: ('A' for Active; 'I' for Inactive)
REMARK   57  A    between atoms: CA   and  CB  
REMARK   58  A    between atoms: CB   and  CG  
REMARK  4 active torsions:
REMARK  status: ('A' for Active; 'I' for Inactive)
REMARK   59  A    between atoms: CA   and  CB  
REMARK   60  A    between atoms: CB   and  CG  
REMARK   61  A    between atoms: CG   and  CD  
REMARK   62  A    between atoms: CD   and  CE  
REMARK viewdock state: D
ATOM      1  C   LIG d 111      12.000  -0.533  54.374  0.00  0.00     0.434 A 
ATOM      2  C   LIG d 111      14.330  -4.175  53.769  0.00  0.00     0.230 A 
ATOM      3  C   LIG d 111      12.434  -3.541  52.589  0.00  0.00     0.152 A 
ATOM      4  N   LIG d 111      14.414  -3.089  54.572  0.00  0.00    -0.173 NA
ATOM      5  N   LIG d 111      11.533  -1.309  53.418  0.00  0.00    -0.182 NA
ATOM      6  N   LIG d 111      13.414  -4.446  52.816  0.00  0.00    -0.218 NA
ATOM      7  C   LIG d 111      13.404  -2.236  54.320  0.00  0.00     0.339 A 
ATOM      8  C   LIG d 111      12.400  -2.379  53.377  0.00  0.00     0.201 A 
ATOM      9  N   LIG d 111      13.146  -1.038  54.932  0.00  0.00    -0.132 N 
ATOM     10  C   LIG d 111      13.922  -0.459  56.014  0.00  0.00     0.443 C 
ATOM     11  O   LIG d 111      14.769   0.584  55.486  0.00  0.00    -0.309 OA
ATOM     12  C   LIG d 111      16.087   0.446  56.066  0.00  0.00     0.182 C 
ATOM     13  C   LIG d 111      15.953  -0.543  57.217  0.00  0.00     0.183 C 
ATOM     14  C   LIG d 111      14.854  -1.458  56.712  0.00  0.00     0.244 C 
ATOM     15  C   LIG d 111      16.604   1.821  56.478  0.00  0.00     0.203 C 
ATOM     16  O   LIG d 111      16.050   2.804  55.602  0.00  0.00    -0.321 OA
ATOM     17  P   LIG d 111      16.980   4.046  55.109  0.00  0.00     0.234 P 
ATOM     18  S   LIG d 111      15.922   5.512  54.391  0.00  0.00     0.003 SA
ATOM     19  O   LIG d 111      17.740   3.260  53.922  0.00  0.00    -0.238 OA
ATOM     20  P   LIG d 111      17.016   2.499  52.708  0.00  0.00     0.445 P 
ATOM     21  O   LIG d 111      17.713   1.197  52.417  0.00  0.00    -0.245 OA
ATOM     22  O   LIG d 111      15.602   2.133  53.418  0.00  0.00    -0.316 OA
ATOM     23  H   LIG d 111      14.868   2.647  53.030  0.00  0.00     0.220 HD
ATOM     24  P   LIG d 111      16.720   3.855  50.769  0.00  0.00     0.438 P 
ATOM     25  O   LIG d 111      17.977   3.974  49.956  0.00  0.00    -0.246 OA
ATOM     26  O   LIG d 111      16.146   5.327  51.096  0.00  0.00    -0.316 OA
ATOM     27  H   LIG d 111      15.789   5.355  52.006  0.00  0.00     0.220 HD
ATOM     28  O   LIG d 111      15.489   3.357  49.842  0.00  0.00    -0.316 OA
ATOM     29  H   LIG d 111      15.255   3.977  49.126  0.00  0.00     0.220 HD
ATOM     30  S   LIG d  11      18.367   4.363  56.654  0.00  0.00    -0.091 SA
ATOM     31  H   LIG d  11      18.846   5.518  56.173  0.00  0.00     0.111 HD
ATOM     32  O   LIG d 111      15.523   0.099  58.421  0.00  0.00    -0.386 OA
ATOM     33  H   LIG d 111      14.623  -0.251  58.592  0.00  0.00     0.210 HD
ATOM     34  O   LIG d 111      14.263  -2.155  57.809  0.00  0.00    -0.380 OA
ATOM     35  H   LIG d 111      14.995  -2.637  58.255  0.00  0.00     0.210 HD
ATOM     36  N   LIG d 111      11.497  -3.820  51.602  0.00  0.00    -0.341 NA
ATOM     37  H   LIG d 111      10.787  -4.480  51.903  0.00  0.00     0.144 HD
ATOM     38  H   LIG d 111      11.932  -3.982  50.702  0.00  0.00     0.144 HD
ATOM      1  CA  ARG A  93      11.357   9.429  58.493  1.00 59.89     0.186 C 
ATOM      2  CB  ARG A  93      12.236   9.564  59.757  1.00 58.23     0.036 C 
ATOM      3  CG  ARG A  93      12.134   8.412  60.775  1.00 60.51     0.029 C 
ATOM      4  CD  ARG A  93      10.735   8.184  61.343  1.00 61.21     0.145 C 
ATOM      5  NE  ARG A  93      10.779   7.336  62.537  1.00 60.36    -0.083 NA
ATOM      6  CZ  ARG A  93      11.358   6.140  62.606  1.00 66.21     0.782 C 
ATOM      7  NH2 ARG A  93      11.341   5.455  63.740  1.00 48.93     0.063 N 
ATOM      8  NH1 ARG A  93      11.951   5.616  61.539  1.00 52.54     0.063 N 
ATOM      9  CA  CYS A  97      10.408   3.635  56.475  1.00 55.45     0.198 C 
ATOM     10  CB  CYS A  97      10.309   3.703  57.996  1.00 56.61     0.103 C 
ATOM     11  SG  CYS A  97       9.398   2.331  58.746  1.00 59.92    -0.080 SA
ATOM     12  CA  GLN A  98       6.821   2.814  55.435  1.00 57.21     0.187 C 
ATOM     13  CB  GLN A  98       5.702   3.596  56.134  1.00 60.72     0.044 C 
ATOM     14  CG  GLN A  98       5.268   3.110  57.505  1.00 78.15     0.094 C 
ATOM     15  CD  GLN A  98       5.999   3.829  58.612  1.00 97.60     0.274 C 
ATOM     16  OE1 GLN A  98       7.233   3.954  58.619  1.00 90.91    -0.269 OA
ATOM     17  NE2 GLN A  98       5.245   4.317  59.582  1.00 94.53    -0.107 N 
ATOM     18  CA  SER A 101      12.406   3.303  51.001  1.00 47.65     0.219 C 
ATOM     19  CB  SER A 101      13.190   3.322  52.316  1.00 49.57     0.216 C 
ATOM     20  OG  SER A 101      14.017   4.459  52.500  1.00 54.41    -0.218 OA
ATOM     21  CA  VAL A 102      10.122   0.251  50.319  1.00 45.51     0.186 C 
ATOM     22  CB  VAL A 102       8.740  -0.096  50.947  1.00 49.19     0.032 C 
ATOM     23  CG1 VAL A 102       7.600   0.272  50.001  1.00 48.60     0.003 C 
ATOM     24  CG2 VAL A 102       8.657  -1.575  51.320  1.00 48.10     0.003 C 
ATOM     25  CA  TYR A 105      14.000  -1.737  47.254  1.00 43.40     0.191 C 
ATOM     26  CB  TYR A 105      13.781  -2.368  48.630  1.00 43.23     0.060 C 
ATOM     27  CG  TYR A 105      13.322  -3.811  48.603  1.00 42.60    -0.020 A 
ATOM     28  CD2 TYR A 105      11.988  -4.131  48.372  1.00 43.44    -0.002 A 
ATOM     29  CE2 TYR A 105      11.567  -5.455  48.283  1.00 43.57     0.027 A 
ATOM     30  CZ  TYR A 105      12.488  -6.482  48.406  1.00 47.42     0.131 A 
ATOM     31  OH  TYR A 105      12.059  -7.784  48.301  1.00 47.92    -0.190 OA
ATOM     32  CE1 TYR A 105      13.821  -6.190  48.636  1.00 40.45     0.027 A 
ATOM     33  CD1 TYR A 105      14.235  -4.858  48.711  1.00 42.63    -0.002 A 
ATOM     34  CA  PHE A 106      11.158  -3.179  45.107  1.00 51.18     0.191 C 
ATOM     35  CB  PHE A 106       9.636  -3.197  45.400  1.00 55.17     0.060 C 
ATOM     36  CG  PHE A 106       9.109  -3.130  46.816  1.00 59.28    -0.020 A 
ATOM     37  CD1 PHE A 106       9.523  -4.053  47.775  1.00 63.24    -0.004 A 
ATOM     38  CE1 PHE A 106       9.066  -3.974  49.092  1.00 66.24    -0.000 A 
ATOM     39  CZ  PHE A 106       8.263  -2.921  49.480  1.00 67.24    -0.000 A 
ATOM     40  CE2 PHE A 106       7.897  -1.957  48.563  1.00 68.40    -0.000 A 
ATOM     41  CD2 PHE A 106       8.338  -2.052  47.235  1.00 63.30    -0.004 A 
ATOM     42  CA  TYR A 109      15.002  -5.824  42.359  1.00 44.32     0.191 C 
ATOM     43  CB  TYR A 109      14.401  -6.700  43.474  1.00 43.91     0.060 C 
ATOM     44  CG  TYR A 109      13.984  -8.034  42.896  1.00 41.58    -0.020 A 
ATOM     45  CD1 TYR A 109      13.062  -8.843  43.555  1.00 42.10    -0.002 A 
ATOM     46  CE1 TYR A 109      12.597 -10.029  42.985  1.00 39.95     0.027 A 
ATOM     47  CZ  TYR A 109      13.029 -10.401  41.723  1.00 44.86     0.131 A 
ATOM     48  CE2 TYR A 109      13.929  -9.604  41.038  1.00 40.45     0.027 A 
ATOM     49  OH  TYR A 109      12.584 -11.575  41.169  1.00 45.89    -0.190 OA
ATOM     50  CD2 TYR A 109      14.383  -8.417  41.616  1.00 41.38    -0.002 A 
ATOM     51  CA  MET A 152       7.849  -7.115  43.442  1.00 60.44     0.187 C 
ATOM     52  CB  MET A 152       8.864  -6.222  42.718  1.00 62.10     0.046 C 
ATOM     53  CG  MET A 152       9.985  -5.749  43.602  1.00 64.63     0.060 C 
ATOM     54  SD  MET A 152      10.388  -6.828  44.995  1.00 66.98    -0.139 SA
ATOM     55  CE  MET A 152      11.980  -6.153  45.390  1.00 63.83     0.069 C 
ATOM     56  CA  LEU A 155       6.206  -8.638  48.212  1.00 59.11     0.186 C 
ATOM     57  CB  LEU A 155       7.625  -9.014  47.738  1.00 57.66     0.034 C 
ATOM     58  CG  LEU A 155       8.799  -8.096  48.057  1.00 61.82     0.002 C 
ATOM     59  CD2 LEU A 155       8.709  -7.538  49.471  1.00 63.41     0.000 C 
ATOM     60  CD1 LEU A 155       8.830  -6.959  47.075  1.00 60.03     0.000 C 
ATOM     61  CA  SER A 156       6.509  -4.864  48.930  1.00 56.90     0.219 C 
ATOM     62  CB  SER A 156       6.789  -3.832  47.837  1.00 60.21     0.216 C 
ATOM     63  OG  SER A 156       6.161  -4.112  46.594  1.00 67.39    -0.218 OA
ATOM     64  CA  ASN A 159       6.123  -4.191  54.295  1.00 52.94     0.196 C 
ATOM     65  CB  ASN A 159       7.426  -4.124  53.463  1.00 50.55     0.126 C 
ATOM     66  CG  ASN A 159       8.434  -3.076  53.874  1.00 57.65     0.276 C 
ATOM     67  OD1 ASN A 159       9.616  -3.200  53.587  1.00 61.23    -0.269 OA
ATOM     68  ND2 ASN A 159       8.005  -1.987  54.492  1.00 42.85    -0.107 N 
ATOM     69  CA  THR A 163       5.150  -0.592  59.487  1.00 57.53     0.216 C 
ATOM     70  CB  THR A 163       6.083   0.047  58.432  1.00 61.43     0.184 C 
ATOM     71  OG1 THR A 163       5.469  -0.034  57.154  1.00 59.66    -0.221 OA
ATOM     72  CG2 THR A 163       7.452  -0.614  58.371  1.00 57.38     0.038 C 
ATOM     73  CA  LYS A 173      15.330   6.284  63.552  1.00 57.57     0.186 C 
ATOM     74  CB  LYS A 173      16.293   7.171  62.738  1.00 59.52     0.034 C 
ATOM     75  CG  LYS A 173      16.546   6.724  61.304  1.00 65.83     0.005 C 
ATOM     76  CD  LYS A 173      17.986   6.240  61.124  1.00 71.51     0.041 C 
ATOM     77  CE  LYS A 173      18.140   5.045  60.207  1.00 69.08     0.338 C 
ATOM     78  NZ  LYS A 173      18.198   3.763  60.958  1.00 69.29     0.618 N 
ATOM     79  CA  LYS A 174      15.508   2.484  62.776  1.00 51.48     0.186 C 
ATOM     80  CB  LYS A 174      16.296   1.384  63.512  1.00 52.43     0.034 C 
ATOM     81  CG  LYS A 174      17.254   0.546  62.707  1.00 57.02     0.005 C 
ATOM     82  CD  LYS A 174      16.533  -0.645  62.079  1.00 61.29     0.041 C 
ATOM     83  CE  LYS A 174      17.280  -1.949  62.221  1.00 63.07     0.338 C 
ATOM     84  NZ  LYS A 174      17.341  -2.394  63.636  1.00 64.24     0.618 N 
ATOM     85  CA  CYS A 175      12.531   1.156  60.693  1.00 52.05     0.198 C 
ATOM     86  CB  CYS A 175      12.594   0.885  59.188  1.00 52.97     0.103 C 
ATOM     87  SG  CYS A 175      11.384  -0.323  58.583  1.00 58.19    -0.080 SA
ATOM     88  CA  SER A 176      12.543  -2.161  62.656  1.00 47.09     0.219 C 
ATOM     89  CB  SER A 176      13.797  -2.935  63.058  1.00 49.42     0.216 C 
ATOM     90  OG  SER A 176      13.492  -4.225  63.564  1.00 57.35    -0.218 OA
ATOM     91  CA  LYS A 179       7.152  -2.688  62.727  1.00 48.92     0.186 C 
ATOM     92  CB  LYS A 179       8.163  -3.565  61.966  1.00 50.09     0.034 C 
ATOM     93  CG  LYS A 179       8.837  -4.581  62.874  1.00 55.91     0.005 C 
ATOM     94  CD  LYS A 179      10.328  -4.567  62.739  1.00 55.19     0.041 C 
ATOM     95  CE  LYS A 179      10.701  -4.943  61.334  1.00 53.09     0.338 C 
ATOM     96  NZ  LYS A 179      11.547  -3.912  60.680  1.00 49.98     0.618 N 
ATOM     97  CA  HIS A 187      10.766  -8.273  56.477  1.00 45.14     0.192 C 
ATOM     98  CB  HIS A 187      11.101  -7.312  57.639  1.00 44.58     0.082 C 
ATOM     99  CG  HIS A 187      10.909  -5.863  57.308  1.00 46.33     0.082 A 
ATOM    100  ND1 HIS A 187      10.347  -5.466  56.109  1.00 47.66    -0.227 NA
ATOM    101  CE1 HIS A 187      10.327  -4.145  56.142  1.00 45.53     0.199 A 
ATOM    102  NE2 HIS A 187      10.845  -3.678  57.275  1.00 45.13    -0.221 NA
ATOM    103  CD2 HIS A 187      11.219  -4.762  58.028  1.00 46.10     0.116 A 
ATOM    104  CA  VAL A 190      11.268 -10.574  51.763  1.00 49.37     0.186 C 
ATOM    105  CB  VAL A 190      10.556  -9.205  51.945  1.00 53.61     0.032 C 
ATOM    106  CG1 VAL A 190       9.267  -9.332  52.729  1.00 53.25     0.003 C 
ATOM    107  CG2 VAL A 190      11.477  -8.212  52.627  1.00 54.78     0.003 C 
ATOM    108  CA  ASN A 191      15.033 -10.052  52.403  1.00 41.57     0.196 C 
ATOM    109  CB  ASN A 191      15.643  -9.498  53.680  1.00 36.18     0.126 C 
ATOM    110  CG  ASN A 191      15.647 -10.536  54.778  1.00 51.01     0.276 C 
ATOM    111  OD1 ASN A 191      15.225 -10.293  55.911  1.00 48.94    -0.269 OA
ATOM    112  ND2 ASN A 191      16.051 -11.737  54.458  1.00 41.78    -0.107 N 
ATOM    113  CA  CYS A 194      15.509 -10.879  47.360  1.00 42.51     0.198 C 
ATOM    114  CB  CYS A 194      15.406  -9.501  47.992  1.00 42.24     0.103 C 
ATOM    115  SG  CYS A 194      16.738  -9.167  49.170  1.00 47.54    -0.080 SA
ATOM    116  CA  ARG A 256      22.497  -7.543  54.070  1.00 40.71     0.186 C 
ATOM    117  CB  ARG A 256      21.648  -7.737  52.800  1.00 38.64     0.036 C 
ATOM    118  CG  ARG A 256      21.229  -9.193  52.596  1.00 42.53     0.029 C 
ATOM    119  CD  ARG A 256      19.720  -9.393  52.737  1.00 44.33     0.145 C 
ATOM    120  NE  ARG A 256      19.331  -9.982  54.017  1.00 40.66    -0.083 NA
ATOM    121  CZ  ARG A 256      19.022 -11.262  54.190  1.00 52.38     0.782 C 
ATOM    122  NH1 ARG A 256      19.067 -12.108  53.168  1.00 37.43     0.063 N 
ATOM    123  NH2 ARG A 256      18.680 -11.711  55.388  1.00 45.57     0.063 N 
ATOM    124  CA  TYR A 259      22.125  -6.560  59.107  1.00 36.70     0.191 C 
ATOM    125  CB  TYR A 259      22.302  -5.448  58.050  1.00 36.37     0.060 C 
ATOM    126  CG  TYR A 259      21.326  -5.597  56.901  1.00 37.29    -0.020 A 
ATOM    127  CD2 TYR A 259      21.491  -4.879  55.720  1.00 37.84    -0.002 A 
ATOM    128  CE2 TYR A 259      20.629  -5.058  54.636  1.00 39.35     0.027 A 
ATOM    129  CZ  TYR A 259      19.605  -5.993  54.719  1.00 44.59     0.131 A 
ATOM    130  OH  TYR A 259      18.738  -6.206  53.681  1.00 41.50    -0.190 OA
ATOM    131  CE1 TYR A 259      19.458  -6.754  55.863  1.00 38.92     0.027 A 
ATOM    132  CD1 TYR A 259      20.319  -6.560  56.941  1.00 39.21    -0.002 A 
ATOM    133  CA  GLN A 263      16.853  -5.928  62.804  1.00 41.02     0.187 C 
ATOM    134  CB  GLN A 263      16.534  -5.555  61.339  1.00 41.50     0.044 C 
ATOM    135  CG  GLN A 263      15.572  -6.485  60.604  1.00 37.86     0.094 C 
ATOM    136  CD  GLN A 263      14.146  -5.975  60.693  1.00 48.33     0.274 C 
ATOM    137  OE1 GLN A 263      13.217  -6.703  61.069  1.00 42.79    -0.269 OA
ATOM    138  NE2 GLN A 263      13.924  -4.718  60.329  1.00 33.55    -0.107 N 
ATOM    139  CA  PHE A 277      24.046  -0.281  59.829  1.00 37.48     0.191 C 
ATOM    140  CB  PHE A 277      23.381   0.613  60.894  1.00 38.98     0.060 C 
ATOM    141  CG  PHE A 277      22.299  -0.093  61.683  1.00 40.06    -0.020 A 
ATOM    142  CD1 PHE A 277      20.958   0.247  61.521  1.00 41.47    -0.004 A 
ATOM    143  CE1 PHE A 277      19.963  -0.398  62.255  1.00 41.97    -0.000 A 
ATOM    144  CZ  PHE A 277      20.304  -1.382  63.156  1.00 41.82    -0.000 A 
ATOM    145  CE2 PHE A 277      21.622  -1.740  63.328  1.00 44.30    -0.000 A 
ATOM    146  CD2 PHE A 277      22.620  -1.091  62.599  1.00 41.93    -0.004 A 
ATOM    147  CA  LYS A 280      24.627  -1.514  54.783  1.00 38.25     0.186 C 
ATOM    148  CB  LYS A 280      23.432  -2.191  55.492  1.00 39.37     0.034 C 
ATOM    149  CG  LYS A 280      23.044  -3.569  54.994  1.00 48.63     0.005 C 
ATOM    150  CD  LYS A 280      24.144  -4.237  54.177  1.00 43.59     0.041 C 
ATOM    151  CE  LYS A 280      23.962  -3.835  52.736  1.00 39.84     0.338 C 
ATOM    152  NZ  LYS A 280      25.164  -3.212  52.152  1.00 34.79     0.618 N 
ENDMDL
REMARK VINA RESULT:       6.0      1.716      2.294
REMARK  14 active torsions:
REMARK  status: ('A' for Active; 'I' for Inactive)
REMARK    1  A    between atoms: C_3  and  C_21 
REMARK    2  A    between atoms: C_3  and  O_17 
REMARK    3  A    between atoms: C_8  and  N_27 
REMARK    4  A    between atoms: O_12  and  C_20 
REMARK    5  A    between atoms: O_13  and  C_22 
REMARK    6  A    between atoms: O_14  and  P_32 
REMARK    7  A    between atoms: O_15  and  P_33 
REMARK    8  A    between atoms: O_16  and  P_33 
REMARK    9  A    between atoms: O_17  and  P_31 
REMARK   10  A    between atoms: O_18  and  P_31 
REMARK   11  A    between atoms: O_18  and  P_32 
REMARK   12  A    between atoms: C_19  and  N_36 
REMARK   13  A    between atoms: S_37  and  P_31 
REMARK   14  A    between atoms: P_33  and  P_32 
REMARK  4 active torsions:
REMARK  status: ('A' for Active; 'I' for Inactive)
REMARK    1  A    between atoms: CA   and  CB  
REMARK    2  A    between atoms: CB   and  CG  
REMARK    3  A    between atoms: CG   and  CD  
REMARK    4  A    between atoms: CD   and  NE  
REMARK       I    between atoms: NE   and  CZ  
REMARK  2 active torsions:
REMARK  status: ('A' for Active; 'I' for Inactive)
REMARK    5  A    between atoms: CA   and  CB  
REMARK    6  A    between atoms: CB   and  SG  
REMARK  3 active torsions:
REMARK  status: ('A' for Active; 'I' for Inactive)
REMARK    7  A    between atoms: CA   and  CB  
REMARK    8  A    between atoms: CB   and  CG  
REMARK    9  A    between atoms: CG   and  CD  
REMARK  1 active torsions:
REMARK  status: ('A' for Active; 'I' for Inactive)
REMARK   10  A    between atoms: CA   and  CB  
REMARK  1 active torsions:
REMARK  status: ('A' for Active; 'I' for Inactive)
REMARK   11  A    between atoms: CA   and  CB  
REMARK  2 active torsions:
REMARK  status: ('A' for Active; 'I' for Inactive)
REMARK   12  A    between atoms: CA   and  CB  
REMARK   13  A    between atoms: CB   and  CG  
REMARK  2 active torsions:
REMARK  status: ('A' for Active; 'I' for Inactive)
REMARK   14  A    between atoms: CA   and  CB  
REMARK   15  A    between atoms: CB   and  CG  
REMARK  2 active torsions:
REMARK  status: ('A' for Active; 'I' for Inactive)
REMARK   16  A    between atoms: CA   and  CB  
REMARK   17  A    between atoms: CB   and  CG  
REMARK  3 active torsions:
REMARK  status: ('A' for Active; 'I' for Inactive)
REMARK   18  A    between atoms: CA   and  CB  
REMARK   19  A    between atoms: CB   and  CG  
REMARK   20  A    between atoms: CG   and  SD  
REMARK  2 active torsions:
REMARK  status: ('A' for Active; 'I' for Inactive)
REMARK   21  A    between atoms: CA   and  CB  
REMARK   22  A    between atoms: CB   and  CG  
REMARK  1 active torsions:
REMARK  status: ('A' for Active; 'I' for Inactive)
REMARK   23  A    between atoms: CA   and  CB  
REMARK  2 active torsions:
REMARK  status: ('A' for Active; 'I' for Inactive)
REMARK   24  A    between atoms: CA   and  CB  
REMARK   25  A    between atoms: CB   and  CG  
REMARK  1 active torsions:
REMARK  status: ('A' for Active; 'I' for Inactive)
REMARK   26  A    between atoms: CA   and  CB  
REMARK  4 active torsions:
REMARK  status: ('A' for Active; 'I' for Inactive)
REMARK   27  A    between atoms: CA   and  CB  
REMARK   28  A    between atoms: CB   and  CG  
REMARK   29  A    between atoms: CG   and  CD  
REMARK   30  A    between atoms: CD   and  CE  
REMARK  4 active torsions:
REMARK  status: ('A' for Active; 'I' for Inactive)
REMARK   31  A    between atoms: CA   and  CB  
REMARK   32  A    between atoms: CB   and  CG  
REMARK   33  A    between atoms: CG   and  CD  
REMARK   34  A    between atoms: CD   and  CE  
REMARK  2 active torsions:
REMARK  status: ('A' for Active; 'I' for Inactive)
REMARK   35  A    between atoms: CA   and  CB  
REMARK   36  A    between atoms: CB   and  SG  
REMARK  1 active torsions:
REMARK  status: ('A' for Active; 'I' for Inactive)
REMARK   37  A    between atoms: CA   and  CB  
REMARK  4 active torsions:
REMARK  status: ('A' for Active; 'I' for Inactive)
REMARK   38  A    between atoms: CA   and  CB  
REMARK   39  A    between atoms: CB   and  CG  
REMARK   40  A    between atoms: CG   and  CD  
REMARK   41  A    between atoms: CD   and  CE  
REMARK  2 active torsions:
REMARK  status: ('A' for Active; 'I' for Inactive)
REMARK   42  A    between atoms: CA   and  CB  
REMARK   43  A    between atoms: CB   and  CG  
REMARK  1 active torsions:
REMARK  status: ('A' for Active; 'I' for Inactive)
REMARK   44  A    between atoms: CA   and  CB  
REMARK  2 active torsions:
REMARK  status: ('A' for Active; 'I' for Inactive)
REMARK   45  A    between atoms: CA   and  CB  
REMARK   46  A    between atoms: CB   and  CG  
REMARK  1 active torsions:
REMARK  status: ('A' for Active; 'I' for Inactive)
REMARK   47  A    between atoms: CA   and  CB  
REMARK  4 active torsions:
REMARK  status: ('A' for Active; 'I' for Inactive)
REMARK   48  A    between atoms: CA   and  CB  
REMARK   49  A    between atoms: CB   and  CG  
REMARK   50  A    between atoms: CG   and  CD  
REMARK   51  A    between atoms: CD   and  NE  
REMARK       I    between atoms: NE   and  CZ  
REMARK  2 active torsions:
REMARK  status: ('A' for Active; 'I' for Inactive)
REMARK   52  A    between atoms: CA   and  CB  
REMARK   53  A    between atoms: CB   and  CG  
REMARK  3 active torsions:
REMARK  status: ('A' for Active; 'I' for Inactive)
REMARK   54  A    between atoms: CA   and  CB  
REMARK   55  A    between atoms: CB   and  CG  
REMARK   56  A    between atoms: CG   and  CD  
REMARK  2 active torsions:
REMARK  status: ('A' for Active; 'I' for Inactive)
REMARK   57  A    between atoms: CA   and  CB  
REMARK   58  A    between atoms: CB   and  CG  
REMARK  4 active torsions:
REMARK  status: ('A' for Active; 'I' for Inactive)
REMARK   59  A    between atoms: CA   and  CB  
REMARK   60  A    between atoms: CB   and  CG  
REMARK   61  A    between atoms: CG   and  CD  
REMARK   62  A    between atoms: CD   and  CE  
REMARK viewdock state: D
ATOM      1  C   LIG d 111      11.929  -0.736  53.997  0.00  0.00     0.434 A 
ATOM      2  C   LIG d 111      14.344  -4.360  53.701  0.00  0.00     0.230 A 
ATOM      3  C   LIG d 111      12.480  -3.841  52.421  0.00  0.00     0.152 A 
ATOM      4  N   LIG d 111      14.381  -3.225  54.436  0.00  0.00    -0.173 NA
ATOM      5  N   LIG d 111      11.510  -1.580  53.077  0.00  0.00    -0.182 NA
ATOM      6  N   LIG d 111      13.467  -4.709  52.736  0.00  0.00    -0.218 NA
ATOM      7  C   LIG d 111      13.365  -2.410  54.097  0.00  0.00     0.339 A 
ATOM      8  C   LIG d 111      12.397  -2.632  53.132  0.00  0.00     0.201 A 
ATOM      9  N   LIG d 111      13.064  -1.182  54.623  0.00  0.00    -0.132 N 
ATOM     10  C   LIG d 111      13.792  -0.520  55.692  0.00  0.00     0.443 C 
ATOM     11  O   LIG d 111      14.456   0.647  55.162  0.00  0.00    -0.309 OA
ATOM     12  C   LIG d 111      15.803   0.689  55.689  0.00  0.00     0.182 C 
ATOM     13  C   LIG d 111      15.861  -0.334  56.816  0.00  0.00     0.183 C 
ATOM     14  C   LIG d 111      14.886  -1.389  56.326  0.00  0.00     0.244 C 
ATOM     15  C   LIG d 111      16.132   2.115  56.120  0.00  0.00     0.203 C 
ATOM     16  O   LIG d 111      15.560   3.025  55.180  0.00  0.00    -0.321 OA
ATOM     17  P   LIG d 111      16.539   3.848  54.171  0.00  0.00     0.234 P 
ATOM     18  S   LIG d 111      16.123   5.747  54.135  0.00  0.00     0.003 SA
ATOM     19  O   LIG d 111      16.053   3.135  52.806  0.00  0.00    -0.238 OA
ATOM     20  P   LIG d 111      16.694   3.386  51.356  0.00  0.00     0.445 P 
ATOM     21  O   LIG d 111      18.186   3.557  51.466  0.00  0.00    -0.245 OA
ATOM     22  O   LIG d 111      16.431   1.931  50.683  0.00  0.00    -0.316 OA
ATOM     23  H   LIG d 111      15.526   1.614  50.870  0.00  0.00     0.220 HD
ATOM     24  P   LIG d 111      15.640   5.141  50.135  0.00  0.00     0.438 P 
ATOM     25  O   LIG d 111      15.081   6.208  51.032  0.00  0.00    -0.246 OA
ATOM     26  O   LIG d 111      14.489   4.623  49.128  0.00  0.00    -0.316 OA
ATOM     27  H   LIG d 111      14.617   5.012  48.241  0.00  0.00     0.220 HD
ATOM     28  O   LIG d 111      16.611   5.793  49.015  0.00  0.00    -0.316 OA
ATOM     29  H   LIG d 111      17.163   5.144  48.540  0.00  0.00     0.220 HD
ATOM     30  S   LIG d  11      18.482   3.169  54.588  0.00  0.00    -0.091 SA
ATOM     31  H   LIG d  11      19.069   4.370  54.497  0.00  0.00     0.111 HD
ATOM     32  O   LIG d 111      15.392   0.211  58.052  0.00  0.00    -0.386 OA
ATOM     33  H   LIG d 111      16.202   0.417  58.566  0.00  0.00     0.210 HD
ATOM     34  O   LIG d 111      14.447  -2.188  57.425  0.00  0.00    -0.380 OA
ATOM     35  H   LIG d 111      13.468  -2.104  57.452  0.00  0.00     0.210 HD
ATOM     36  N   LIG d 111      11.582  -4.200  51.423  0.00  0.00    -0.341 NA
ATOM     37  H   LIG d 111      10.815  -3.543  51.324  0.00  0.00     0.144 HD
ATOM     38  H   LIG d 111      11.351  -5.184  51.458  0.00  0.00     0.144 HD
ATOM      1  CA  ARG A  93      11.357   9.429  58.493  1.00 59.89     0.186 C 
ATOM      2  CB  ARG A  93      12.236   9.564  59.757  1.00 58.23     0.036 C 
ATOM      3  CG  ARG A  93      11.556   9.205  61.092  1.00 60.51     0.029 C 
ATOM      4  CD  ARG A  93      10.786   7.887  61.083  1.00 61.21     0.145 C 
ATOM      5  NE  ARG A  93      11.524   6.835  61.786  1.00 60.36    -0.083 NA
ATOM      6  CZ  ARG A  93      11.153   6.276  62.935  1.00 66.21     0.782 C 
ATOM      7  NH2 ARG A  93      11.896   5.329  63.487  1.00 48.93     0.063 N 
ATOM      8  NH1 ARG A  93      10.038   6.666  63.545  1.00 52.54     0.063 N 
ATOM      9  CA  CYS A  97      10.408   3.635  56.475  1.00 55.45     0.198 C 
ATOM     10  CB  CYS A  97      10.309   3.703  57.996  1.00 56.61     0.103 C 
ATOM     11  SG  CYS A  97       8.751   3.077  58.670  1.00 59.92    -0.080 SA
ATOM     12  CA  GLN A  98       6.821   2.814  55.435  1.00 57.21     0.187 C 
ATOM     13  CB  GLN A  98       5.702   3.596  56.134  1.00 60.72     0.044 C 
ATOM     14  CG  GLN A  98       5.927   5.081  56.356  1.00 78.15     0.094 C 
ATOM     15  CD  GLN A  98       4.847   5.914  55.710  1.00 97.60     0.274 C 
ATOM     16  OE1 GLN A  98       4.475   5.726  54.542  1.00 90.91    -0.269 OA
ATOM     17  NE2 GLN A  98       4.322   6.865  56.463  1.00 94.53    -0.107 N 
ATOM     18  CA  SER A 101      12.406   3.303  51.001  1.00 47.65     0.219 C 
ATOM     19  CB  SER A 101      13.190   3.322  52.316  1.00 49.57     0.216 C 
ATOM     20  OG  SER A 101      13.474   4.616  52.821  1.00 54.41    -0.218 OA
ATOM     21  CA  VAL A 102      10.122   0.251  50.319  1.00 45.51     0.186 C 
ATOM     22  CB  VAL A 102       8.740  -0.096  50.947  1.00 49.19     0.032 C 
ATOM     23  CG1 VAL A 102       7.599   0.277  50.004  1.00 48.60     0.003 C 
ATOM     24  CG2 VAL A 102       8.655  -1.577  51.314  1.00 48.10     0.003 C 
ATOM     25  CA  TYR A 105      14.000  -1.737  47.254  1.00 43.40     0.191 C 
ATOM     26  CB  TYR A 105      13.781  -2.368  48.630  1.00 43.23     0.060 C 
ATOM     27  CG  TYR A 105      14.470  -3.700  48.836  1.00 42.60    -0.020 A 
ATOM     28  CD2 TYR A 105      15.854  -3.810  48.745  1.00 43.44    -0.002 A 
ATOM     29  CE2 TYR A 105      16.502  -5.017  48.995  1.00 43.57     0.027 A 
ATOM     30  CZ  TYR A 105      15.768  -6.132  49.361  1.00 47.42     0.131 A 
ATOM     31  OH  TYR A 105      16.423  -7.312  49.619  1.00 47.92    -0.190 OA
ATOM     32  CE1 TYR A 105      14.389  -6.049  49.459  1.00 40.45     0.027 A 
ATOM     33  CD1 TYR A 105      13.750  -4.831  49.219  1.00 42.63    -0.002 A 
ATOM     34  CA  PHE A 106      11.158  -3.179  45.107  1.00 51.18     0.191 C 
ATOM     35  CB  PHE A 106       9.636  -3.197  45.400  1.00 55.17     0.060 C 
ATOM     36  CG  PHE A 106       9.110  -3.160  46.817  1.00 59.28    -0.020 A 
ATOM     37  CD1 PHE A 106       9.582  -4.054  47.777  1.00 63.24    -0.004 A 
ATOM     38  CE1 PHE A 106       9.124  -4.001  49.094  1.00 66.24    -0.000 A 
ATOM     39  CZ  PHE A 106       8.259  -2.998  49.483  1.00 67.24    -0.000 A 
ATOM     40  CE2 PHE A 106       7.833  -2.060  48.566  1.00 68.40    -0.000 A 
ATOM     41  CD2 PHE A 106       8.275  -2.130  47.236  1.00 63.30    -0.004 A 
ATOM     42  CA  TYR A 109      15.002  -5.824  42.359  1.00 44.32     0.191 C 
ATOM     43  CB  TYR A 109      14.401  -6.700  43.474  1.00 43.91     0.060 C 
ATOM     44  CG  TYR A 109      13.983  -8.034  42.896  1.00 41.58    -0.020 A 
ATOM     45  CD1 TYR A 109      13.058  -8.841  43.554  1.00 42.10    -0.002 A 
ATOM     46  CE1 TYR A 109      12.593 -10.026  42.983  1.00 39.95     0.027 A 
ATOM     47  CZ  TYR A 109      13.025 -10.400  41.722  1.00 44.86     0.131 A 
ATOM     48  CE2 TYR A 109      13.928  -9.604  41.038  1.00 40.45     0.027 A 
ATOM     49  OH  TYR A 109      12.580 -11.573  41.168  1.00 45.89    -0.190 OA
ATOM     50  CD2 TYR A 109      14.384  -8.417  41.617  1.00 41.38    -0.002 A 
ATOM     51  CA  MET A 152       7.849  -7.115  43.442  1.00 60.44     0.187 C 
ATOM     52  CB  MET A 152       8.864  -6.222  42.718  1.00 62.10     0.046 C 
ATOM     53  CG  MET A 152      10.071  -5.888  43.551  1.00 64.63     0.060 C 
ATOM     54  SD  MET A 152      10.284  -6.879  45.047  1.00 66.98    -0.139 SA
ATOM     55  CE  MET A 152      11.802  -6.158  45.618  1.00 63.83     0.069 C 
ATOM     56  CA  LEU A 155       6.206  -8.638  48.212  1.00 59.11     0.186 C 
ATOM     57  CB  LEU A 155       7.625  -9.014  47.738  1.00 57.66     0.034 C 
ATOM     58  CG  LEU A 155       8.825  -8.212  48.227  1.00 61.82     0.002 C 
ATOM     59  CD2 LEU A 155       9.143  -7.050  47.297  1.00 63.41     0.000 C 
ATOM     60  CD1 LEU A 155      10.025  -9.112  48.326  1.00 60.03     0.000 C 
ATOM     61  CA  SER A 156       6.509  -4.864  48.930  1.00 56.90     0.219 C 
ATOM     62  CB  SER A 156       6.789  -3.832  47.837  1.00 60.21     0.216 C 
ATOM     63  OG  SER A 156       6.060  -4.041  46.636  1.00 67.39    -0.218 OA
ATOM     64  CA  ASN A 159       6.123  -4.191  54.295  1.00 52.94     0.196 C 
ATOM     65  CB  ASN A 159       7.426  -4.124  53.463  1.00 50.55     0.126 C 
ATOM     66  CG  ASN A 159       8.506  -3.201  53.977  1.00 57.65     0.276 C 
ATOM     67  OD1 ASN A 159       8.489  -2.803  55.133  1.00 61.23    -0.269 OA
ATOM     68  ND2 ASN A 159       9.509  -2.884  53.174  1.00 42.85    -0.107 N 
ATOM     69  CA  THR A 163       5.150  -0.592  59.487  1.00 57.53     0.216 C 
ATOM     70  CB  THR A 163       6.083   0.047  58.432  1.00 61.43     0.184 C 
ATOM     71  OG1 THR A 163       5.453  -0.001  57.160  1.00 59.66    -0.221 OA
ATOM     72  CG2 THR A 163       7.438  -0.639  58.344  1.00 57.38     0.038 C 
ATOM     73  CA  LYS A 173      15.330   6.284  63.552  1.00 57.57     0.186 C 
ATOM     74  CB  LYS A 173      16.293   7.171  62.738  1.00 59.52     0.034 C 
ATOM     75  CG  LYS A 173      17.299   6.426  61.870  1.00 65.83     0.005 C 
ATOM     76  CD  LYS A 173      17.350   7.014  60.458  1.00 71.51     0.041 C 
ATOM     77  CE  LYS A 173      18.354   6.357  59.536  1.00 69.08     0.338 C 
ATOM     78  NZ  LYS A 173      18.755   5.006  60.011  1.00 69.29     0.618 N 
ATOM     79  CA  LYS A 174      15.508   2.484  62.776  1.00 51.48     0.186 C 
ATOM     80  CB  LYS A 174      16.296   1.384  63.512  1.00 52.43     0.034 C 
ATOM     81  CG  LYS A 174      17.011   0.353  62.679  1.00 57.02     0.005 C 
ATOM     82  CD  LYS A 174      16.830   0.642  61.190  1.00 61.29     0.041 C 
ATOM     83  CE  LYS A 174      17.762   1.704  60.661  1.00 63.07     0.338 C 
ATOM     84  NZ  LYS A 174      17.659   1.839  59.187  1.00 64.24     0.618 N 
ATOM     85  CA  CYS A 175      12.531   1.156  60.693  1.00 52.05     0.198 C 
ATOM     86  CB  CYS A 175      12.594   0.885  59.188  1.00 52.97     0.103 C 
ATOM     87  SG  CYS A 175      11.159   0.003  58.515  1.00 58.19    -0.080 SA
ATOM     88  CA  SER A 176      12.543  -2.161  62.656  1.00 47.09     0.219 C 
ATOM     89  CB  SER A 176      13.797  -2.935  63.058  1.00 49.42     0.216 C 
ATOM     90  OG  SER A 176      13.510  -3.987  63.965  1.00 57.35    -0.218 OA
ATOM     91  CA  LYS A 179       7.152  -2.688  62.727  1.00 48.92     0.186 C 
ATOM     92  CB  LYS A 179       8.163  -3.565  61.966  1.00 50.09     0.034 C 
ATOM     93  CG  LYS A 179       9.285  -4.058  62.866  1.00 55.91     0.005 C 
ATOM     94  CD  LYS A 179       8.773  -4.770  64.079  1.00 55.19     0.041 C 
ATOM     95  CE  LYS A 179       9.274  -4.073  65.310  1.00 53.09     0.338 C 
ATOM     96  NZ  LYS A 179      10.105  -4.962  66.162  1.00 49.98     0.618 N 
ATOM     97  CA  HIS A 187      10.766  -8.273  56.477  1.00 45.14     0.192 C 
ATOM     98  CB  HIS A 187      11.101  -7.312  57.639  1.00 44.58     0.082 C 
ATOM     99  CG  HIS A 187      11.845  -7.957  58.770  1.00 46.33     0.082 A 
ATOM    100  ND1 HIS A 187      12.882  -8.840  58.538  1.00 47.66    -0.227 NA
ATOM    101  CE1 HIS A 187      13.307  -9.215  59.732  1.00 45.53     0.199 A 
ATOM    102  NE2 HIS A 187      12.605  -8.636  60.703  1.00 45.13    -0.221 NA
ATOM    103  CD2 HIS A 187      11.671  -7.831  60.104  1.00 46.10     0.116 A 
ATOM    104  CA  VAL A 190      11.268 -10.574  51.763  1.00 49.37     0.186 C 
ATOM    105  CB  VAL A 190      10.556  -9.205  51.945  1.00 53.61     0.032 C 
ATOM    106  CG1 VAL A 190       9.255  -9.336  52.710  1.00 53.25     0.003 C 
ATOM    107  CG2 VAL A 190      11.469  -8.219  52.647  1.00 54.78     0.003 C 
ATOM    108  CA  ASN A 191      15.033 -10.052  52.403  1.00 41.57     0.196 C 
ATOM    109  CB  ASN A 191      15.643  -9.498  53.680  1.00 36.18     0.126 C 
ATOM    110  CG  ASN A 191      16.362 -10.578  54.454  1.00 51.01     0.276 C 
ATOM    111  OD1 ASN A 191      15.773 -11.322  55.242  1.00 48.94    -0.269 OA
ATOM    112  ND2 ASN A 191      17.634 -10.744  54.200  1.00 41.78    -0.107 N 
ATOM    113  CA  CYS A 194      15.509 -10.879  47.360  1.00 42.51     0.198 C 
ATOM    114  CB  CYS A 194      15.406  -9.501  47.992  1.00 42.24     0.103 C 
ATOM    115  SG  CYS A 194      13.891  -9.282  48.957  1.00 47.54    -0.080 SA
ATOM    116  CA  ARG A 256      22.497  -7.543  54.070  1.00 40.71     0.186 C 
ATOM    117  CB  ARG A 256      21.648  -7.737  52.800  1.00 38.64     0.036 C 
ATOM    118  CG  ARG A 256      20.951  -9.098  52.767  1.00 42.53     0.029 C 
ATOM    119  CD  ARG A 256      19.430  -8.974  52.669  1.00 44.33     0.145 C 
ATOM    120  NE  ARG A 256      18.891  -9.455  51.398  1.00 40.66    -0.083 NA
ATOM    121  CZ  ARG A 256      18.942  -8.775  50.258  1.00 52.38     0.782 C 
ATOM    122  NH1 ARG A 256      19.522  -7.582  50.212  1.00 37.43     0.063 N 
ATOM    123  NH2 ARG A 256      18.428  -9.289  49.151  1.00 45.57     0.063 N 
ATOM    124  CA  TYR A 259      22.125  -6.560  59.107  1.00 36.70     0.191 C 
ATOM    125  CB  TYR A 259      22.302  -5.448  58.050  1.00 36.37     0.060 C 
ATOM    126  CG  TYR A 259      20.972  -4.940  57.533  1.00 37.29    -0.020 A 
ATOM    127  CD2 TYR A 259      20.902  -4.136  56.398  1.00 37.84    -0.002 A 
ATOM    128  CE2 TYR A 259      19.673  -3.716  55.882  1.00 39.35     0.027 A 
ATOM    129  CZ  TYR A 259      18.495  -4.132  56.488  1.00 44.59     0.131 A 
ATOM    130  OH  TYR A 259      17.268  -3.750  56.015  1.00 41.50    -0.190 OA
ATOM    131  CE1 TYR A 259      18.543  -4.975  57.582  1.00 38.92     0.027 A 
ATOM    132  CD1 TYR A 259      19.773  -5.380  58.093  1.00 39.21    -0.002 A 
ATOM    133  CA  GLN A 263      16.853  -5.928  62.804  1.00 41.02     0.187 C 
ATOM    134  CB  GLN A 263      16.534  -5.555  61.339  1.00 41.50     0.044 C 
ATOM    135  CG  GLN A 263      15.335  -6.262  60.712  1.00 37.86     0.094 C 
ATOM    136  CD  GLN A 263      14.108  -5.369  60.723  1.00 48.33     0.274 C 
ATOM    137  OE1 GLN A 263      14.060  -4.323  60.061  1.00 42.79    -0.269 OA
ATOM    138  NE2 GLN A 263      13.092  -5.739  61.491  1.00 33.55    -0.107 N 
ATOM    139  CA  PHE A 277      24.046  -0.281  59.829  1.00 37.48     0.191 C 
ATOM    140  CB  PHE A 277      23.381   0.613  60.894  1.00 38.98     0.060 C 
ATOM    141  CG  PHE A 277      22.271  -0.081  61.656  1.00 40.06    -0.020 A 
ATOM    142  CD1 PHE A 277      20.940   0.278  61.464  1.00 41.47    -0.004 A 
ATOM    143  CE1 PHE A 277      19.919  -0.356  62.172  1.00 41.97    -0.000 A 
ATOM    144  CZ  PHE A 277      20.226  -1.347  63.078  1.00 41.82    -0.000 A 
ATOM    145  CE2 PHE A 277      21.535  -1.723  63.279  1.00 44.30    -0.000 A 
ATOM    146  CD2 PHE A 277      22.558  -1.086  62.576  1.00 41.93    -0.004 A 
ATOM    147  CA  LYS A 280      24.627  -1.514  54.783  1.00 38.25     0.186 C 
ATOM    148  CB  LYS A 280      23.432  -2.191  55.492  1.00 39.37     0.034 C 
ATOM    149  CG  LYS A 280      23.328  -3.697  55.351  1.00 48.63     0.005 C 
ATOM    150  CD  LYS A 280      22.414  -4.125  54.209  1.00 43.59     0.041 C 
ATOM    151  CE  LYS A 280      23.221  -4.108  52.936  1.00 39.84     0.338 C 
ATOM    152  NZ  LYS A 280      24.673  -3.999  53.173  1.00 34.79     0.618 N 
ENDMDL
