REMARK VINA RESULT:      -7.7      0.000      0.000
REMARK  15 active torsions:
REMARK  status: ('A' for Active; 'I' for Inactive)
REMARK    1  A    between atoms: C_3  and  C_23 
REMARK    2  A    between atoms: C_3  and  O_18 
REMARK    3  A    between atoms: C_8  and  N_30 
REMARK    4  A    between atoms: O_12  and  C_22 
REMARK    5  A    between atoms: O_13  and  C_24 
REMARK    6  A    between atoms: O_14  and  P_34 
REMARK    7  A    between atoms: O_15  and  P_35 
REMARK    8  A    between atoms: O_16  and  P_36 
REMARK    9  A    between atoms: O_17  and  P_36 
REMARK   10  A    between atoms: O_18  and  P_34 
REMARK   11  A    between atoms: O_19  and  P_34 
REMARK   12  A    between atoms: O_19  and  P_35 
REMARK   13  A    between atoms: O_20  and  P_35 
REMARK   14  A    between atoms: O_20  and  P_36 
REMARK   15  A    between atoms: C_21  and  N_39 
REMARK  2 active torsions:
REMARK  status: ('A' for Active; 'I' for Inactive)
REMARK    1  A    between atoms: CA   and  CB  
REMARK    2  A    between atoms: CB   and  OG  
REMARK  2 active torsions:
REMARK  status: ('A' for Active; 'I' for Inactive)
REMARK    3  A    between atoms: CA   and  CB  
REMARK    4  A    between atoms: CB   and  OG  
REMARK  1 active torsions:
REMARK  status: ('A' for Active; 'I' for Inactive)
REMARK    5  A    between atoms: CA   and  CB  
REMARK  2 active torsions:
REMARK  status: ('A' for Active; 'I' for Inactive)
REMARK    6  A    between atoms: CA   and  CB  
REMARK    7  A    between atoms: CB   and  OG  
REMARK  3 active torsions:
REMARK  status: ('A' for Active; 'I' for Inactive)
REMARK    8  A    between atoms: CA   and  CB  
REMARK    9  A    between atoms: CB   and  CG  
REMARK   10  A    between atoms: CZ   and  OH  
REMARK  2 active torsions:
REMARK  status: ('A' for Active; 'I' for Inactive)
REMARK   11  A    between atoms: CA   and  CB  
REMARK   12  A    between atoms: CB   and  CG  
REMARK       I    between atoms: CG   and  ND2 
REMARK  2 active torsions:
REMARK  status: ('A' for Active; 'I' for Inactive)
REMARK   13  A    between atoms: CA   and  CB  
REMARK   14  A    between atoms: CB   and  CG  
REMARK  4 active torsions:
REMARK  status: ('A' for Active; 'I' for Inactive)
REMARK   15  A    between atoms: CA   and  CB  
REMARK   16  A    between atoms: CB   and  CG  
REMARK   17  A    between atoms: CG   and  CD  
REMARK   18  A    between atoms: CD   and  NE  
REMARK       I    between atoms: NE   and  CZ  
REMARK       I    between atoms: CZ   and  NH1 
REMARK       I    between atoms: CZ   and  NH2 
REMARK  5 active torsions:
REMARK  status: ('A' for Active; 'I' for Inactive)
REMARK   19  A    between atoms: CA   and  CB  
REMARK   20  A    between atoms: CB   and  CG  
REMARK   21  A    between atoms: CG   and  CD  
REMARK   22  A    between atoms: CD   and  CE  
REMARK   23  A    between atoms: CE   and  NZ  
REMARK  4 active torsions:
REMARK  status: ('A' for Active; 'I' for Inactive)
REMARK   24  A    between atoms: CA   and  CB  
REMARK   25  A    between atoms: CB   and  CG  
REMARK   26  A    between atoms: CG   and  CD  
REMARK   27  A    between atoms: CD   and  NE  
REMARK       I    between atoms: NE   and  CZ  
REMARK       I    between atoms: CZ   and  NH1 
REMARK       I    between atoms: CZ   and  NH2 
REMARK  2 active torsions:
REMARK  status: ('A' for Active; 'I' for Inactive)
REMARK   28  A    between atoms: CA   and  CB  
REMARK   29  A    between atoms: CB   and  CG  
REMARK  3 active torsions:
REMARK  status: ('A' for Active; 'I' for Inactive)
REMARK   30  A    between atoms: CA   and  CB  
REMARK   31  A    between atoms: CB   and  CG  
REMARK   32  A    between atoms: CG   and  CD  
REMARK  1 active torsions:
REMARK  status: ('A' for Active; 'I' for Inactive)
REMARK   33  A    between atoms: CA   and  CB  
REMARK  2 active torsions:
REMARK  status: ('A' for Active; 'I' for Inactive)
REMARK   34  A    between atoms: CA   and  CB  
REMARK   35  A    between atoms: CB   and  CG  
REMARK  2 active torsions:
REMARK  status: ('A' for Active; 'I' for Inactive)
REMARK   36  A    between atoms: CA   and  CB  
REMARK   37  A    between atoms: CB   and  OG1 
REMARK  2 active torsions:
REMARK  status: ('A' for Active; 'I' for Inactive)
REMARK   38  A    between atoms: CA   and  CB  
REMARK   39  A    between atoms: CB   and  CG  
REMARK viewdock state: V
ATOM      1  C   LIG d   1     211.916 180.547 189.965  0.00  0.00     0.203 A 
ATOM      2  C   LIG d   1     211.965 178.169 186.305  0.00  0.00     0.225 A 
ATOM      3  C   LIG d   1     213.130 180.142 186.679  0.00  0.00     0.147 A 
ATOM      4  N   LIG d   1     211.384 178.069 187.522  0.00  0.00    -0.216 NA
ATOM      5  N   LIG d   1     212.680 181.050 189.017  0.00  0.00    -0.231 NA
ATOM      6  N   LIG d   1     212.797 179.129 185.847  0.00  0.00    -0.219 NA
ATOM      7  C   LIG d   1     211.728 179.114 188.296  0.00  0.00     0.167 A 
ATOM      8  C   LIG d   1     212.571 180.163 187.967  0.00  0.00     0.147 A 
ATOM      9  N   LIG d   1     211.332 179.369 189.583  0.00  0.00    -0.285 N 
ATOM     10  C   LIG d   1     210.418 178.547 190.357  0.00  0.00     0.253 C 
ATOM     11  O   LIG d   1     210.328 179.067 191.699  0.00  0.00    -0.346 OA
ATOM     12  C   LIG d   1     210.435 177.956 192.626  0.00  0.00     0.178 C 
ATOM     13  C   LIG d   1     210.241 176.688 191.802  0.00  0.00     0.178 C 
ATOM     14  C   LIG d   1     210.870 177.085 190.481  0.00  0.00     0.195 C 
ATOM     15  C   LIG d   1     209.429 178.131 193.758  0.00  0.00     0.206 C 
ATOM     16  O   LIG d   1     208.668 179.312 193.514  0.00  0.00    -0.284 OA
ATOM     17  P   LIG d   1     207.401 179.560 194.471  0.00  0.00     0.483 P 
ATOM     18  O   LIG d   1     206.107 179.034 193.956  0.00  0.00    -0.227 OA
ATOM     19  O   LIG d   1     207.458 181.116 194.772  0.00  0.00    -0.186 OA
ATOM     20  P   LIG d   1     208.132 181.765 196.051  0.00  0.00     0.492 P 
ATOM     21  O   LIG d   1     207.511 181.504 197.376  0.00  0.00    -0.227 OA
ATOM     22  O   LIG d   1     208.293 183.294 195.643  0.00  0.00    -0.186 OA
ATOM     23  P   LIG d   1     208.862 184.366 196.658  0.00  0.00     0.481 P 
ATOM     24  O   LIG d   1     207.944 185.410 197.181  0.00  0.00    -0.227 OA
ATOM     25  O   LIG d   1     210.116 184.983 195.886  0.00  0.00    -0.302 OA
ATOM     26  H   LIG d   1     210.945 184.533 196.140  0.00  0.00     0.222 HD
ATOM     27  O   LIG d   1     209.593 183.504 197.793  0.00  0.00    -0.302 OA
ATOM     28  H   LIG d   1     209.556 183.989 198.643  0.00  0.00     0.222 HD
ATOM     29  O   LIG d   1     209.647 181.240 195.931  0.00  0.00    -0.302 OA
ATOM     30  H   LIG d   1     209.690 180.486 195.303  0.00  0.00     0.222 HD
ATOM     31  O   LIG d   1     207.909 178.895 195.837  0.00  0.00    -0.302 OA
ATOM     32  H   LIG d   1     207.188 178.766 196.482  0.00  0.00     0.222 HD
ATOM     33  O   LIG d   1     208.858 176.391 191.599  0.00  0.00    -0.386 OA
ATOM     34  H   LIG d   1     208.388 177.243 191.722  0.00  0.00     0.210 HD
ATOM     35  O   LIG d   1     210.399 176.228 189.440  0.00  0.00    -0.385 OA
ATOM     36  H   LIG d   1     209.594 176.654 189.071  0.00  0.00     0.210 HD
ATOM     37  N   LIG d   1     213.993 181.123 186.208  0.00  0.00    -0.341 NA
ATOM     38  H   LIG d   1     214.226 181.013 185.226  0.00  0.00     0.144 HD
ATOM     39  H   LIG d   1     214.754 181.299 186.850  0.00  0.00     0.144 HD
ATOM      1  CA  SER A 272     219.500 182.733 197.389  1.00 76.05     0.189 C 
ATOM      2  CB  SER A 272     218.127 183.058 197.980  1.00 67.27     0.169 C 
ATOM      3  OG  SER A 272     218.255 183.825 199.167  1.00 67.48    -0.380 OA
ATOM      4  HG  SER A 272     217.443 184.275 199.369  1.00  0.00     0.211 HD
ATOM      5  CA  SER A 273     219.476 179.341 195.712  1.00 95.92     0.189 C 
ATOM      6  CB  SER A 273     220.525 178.254 195.952  1.00101.58     0.169 C 
ATOM      7  OG  SER A 273     221.111 177.846 194.726  1.00 85.34    -0.380 OA
ATOM      8  HG  SER A 273     221.898 177.338 194.885  1.00  0.00     0.211 HD
ATOM      9  CA  VAL A 274     216.112 178.448 197.254  1.00 73.25     0.159 C 
ATOM     10  CB  VAL A 274     215.954 178.192 198.764  1.00 64.82     0.029 C 
ATOM     11  CG2 VAL A 274     217.179 178.675 199.520  1.00 83.80     0.002 C 
ATOM     12  CG1 VAL A 274     215.681 176.723 199.036  1.00 74.90     0.002 C 
ATOM     13  CA  SER A 275     214.008 181.464 196.150  1.00 63.68     0.189 C 
ATOM     14  CB  SER A 275     213.202 181.973 197.344  1.00 53.99     0.169 C 
ATOM     15  OG  SER A 275     213.112 180.996 198.366  1.00 69.59    -0.380 OA
ATOM     16  HG  SER A 275     213.769 180.319 198.260  1.00  0.00     0.211 HD
ATOM     17  CA  TYR A 278     208.988 186.676 192.328  1.00 45.93     0.164 C 
ATOM     18  CB  TYR A 278     208.875 188.200 192.364  1.00 46.39     0.058 C 
ATOM     19  CG  TYR A 278     209.003 188.808 193.742  1.00 49.20    -0.020 A 
ATOM     20  CD2 TYR A 278     209.902 188.285 194.664  1.00 46.83    -0.002 A 
ATOM     21  CE2 TYR A 278     210.027 188.825 195.927  1.00 52.67     0.024 A 
ATOM     22  CZ  TYR A 278     209.249 189.902 196.285  1.00 55.35     0.089 A 
ATOM     23  CE1 TYR A 278     208.348 190.441 195.391  1.00 55.53     0.024 A 
ATOM     24  CD1 TYR A 278     208.229 189.894 194.126  1.00 50.19    -0.002 A 
ATOM     25  OH  TYR A 278     209.373 190.442 197.543  1.00 54.18    -0.359 OA
ATOM     26  HH  TYR A 278     209.040 191.315 197.714  1.00  0.00     0.217 HD
ATOM     27  CA  ASN A 279     205.913 184.718 191.231  1.00 49.32     0.169 C 
ATOM     28  CB  ASN A 279     206.291 183.397 190.562  1.00 41.19     0.119 C 
ATOM     29  CG  ASN A 279     205.154 182.814 189.759  1.00 49.81     0.230 C 
ATOM     30  OD1 ASN A 279     205.165 182.859 188.532  1.00 57.93    -0.273 OA
ATOM     31  ND2 ASN A 279     204.162 182.265 190.446  1.00 54.39    -0.369 N 
ATOM     32 2HD2 ASN A 279     204.153 182.229 191.466  1.00  0.00     0.159 HD
ATOM     33 1HD2 ASN A 279     203.394 181.872 189.904  1.00  0.00     0.159 HD
ATOM     34  CA  PHE A 280     202.335 184.098 192.325  1.00 48.50     0.164 C 
ATOM     35  CB  PHE A 280     201.775 185.418 192.860  1.00 46.97     0.058 C 
ATOM     36  CG  PHE A 280     201.686 185.468 194.351  1.00 48.53    -0.020 A 
ATOM     37  CD2 PHE A 280     202.576 186.238 195.087  1.00 47.66    -0.004 A 
ATOM     38  CE2 PHE A 280     202.498 186.277 196.468  1.00 56.11    -0.000 A 
ATOM     39  CZ  PHE A 280     201.528 185.535 197.127  1.00 54.55    -0.000 A 
ATOM     40  CE1 PHE A 280     200.640 184.763 196.403  1.00 58.17    -0.000 A 
ATOM     41  CD1 PHE A 280     200.724 184.729 195.022  1.00 57.66    -0.004 A 
ATOM     42  CA  ARG A 281     199.282 182.045 191.372  1.00 53.90     0.159 C 
ATOM     43  CB  ARG A 281     199.250 180.605 191.908  1.00 43.93     0.034 C 
ATOM     44  CG  ARG A 281     197.943 180.242 192.604  1.00 59.82     0.027 C 
ATOM     45  CD  ARG A 281     198.057 180.366 194.116  1.00 43.25     0.116 C 
ATOM     46  NE  ARG A 281     199.040 179.426 194.644  1.00 49.00    -0.212 N 
ATOM     47  CZ  ARG A 281     198.739 178.356 195.371  1.00 62.89     0.666 C 
ATOM     48  NH1 ARG A 281     197.475 178.085 195.671  1.00 74.80    -0.235 N 
ATOM     49  NH2 ARG A 281     199.703 177.560 195.803  1.00 61.99    -0.235 N 
ATOM     50 2HH1 ARG A 281     196.731 178.699 195.338  1.00  0.00     0.174 HD
ATOM     51 1HH1 ARG A 281     197.243 177.263 196.230  1.00  0.00     0.174 HD
ATOM     52 2HH2 ARG A 281     200.674 177.769 195.573  1.00  0.00     0.174 HD
ATOM     53 1HH2 ARG A 281     199.471 176.739 196.361  1.00  0.00     0.174 HD
ATOM     54  HE  ARG A 281     200.024 179.602 194.442  1.00  0.00     0.178 HD
ATOM     55  CA  LYS A 299     201.486 180.756 187.756  1.00 49.56     0.159 C 
ATOM     56  CB  LYS A 299     202.397 179.560 188.025  1.00 54.03     0.032 C 
ATOM     57  CG  LYS A 299     201.713 178.229 187.757  1.00 58.52     0.004 C 
ATOM     58  CD  LYS A 299     200.237 178.255 188.095  1.00 56.71     0.032 C 
ATOM     59  CE  LYS A 299     199.582 176.935 187.724  1.00 52.70     0.206 C 
ATOM     60  NZ  LYS A 299     199.348 176.820 186.265  1.00 62.42    -0.064 N 
ATOM     61  HZ3 LYS A 299     200.177 176.473 185.783  1.00  0.00     0.275 HD
ATOM     62  HZ2 LYS A 299     198.706 176.056 186.052  1.00  0.00     0.275 HD
ATOM     63  HZ1 LYS A 299     199.025 177.698 185.858  1.00  0.00     0.275 HD
ATOM     64  CA  ARG A 126     203.924 165.784 202.144  1.00149.40     0.159 C 
ATOM     65  CB  ARG A 126     204.246 164.987 200.881  1.00133.40     0.034 C 
ATOM     66  CG  ARG A 126     204.978 165.770 199.804  1.00130.01     0.027 C 
ATOM     67  CD  ARG A 126     205.920 166.785 200.432  1.00131.26     0.116 C 
ATOM     68  NE  ARG A 126     207.260 166.746 199.853  1.00126.38    -0.212 N 
ATOM     69  CZ  ARG A 126     207.680 167.570 198.899  1.00123.75     0.666 C 
ATOM     70  NH1 ARG A 126     206.864 168.499 198.420  1.00121.38    -0.235 N 
ATOM     71  NH2 ARG A 126     208.913 167.469 198.422  1.00134.78    -0.235 N 
ATOM     72 2HH1 ARG A 126     205.915 168.576 198.787  1.00  0.00     0.174 HD
ATOM     73 1HH1 ARG A 126     207.186 169.131 197.688  1.00  0.00     0.174 HD
ATOM     74 2HH2 ARG A 126     209.541 166.755 198.790  1.00  0.00     0.174 HD
ATOM     75 1HH2 ARG A 126     209.235 168.102 197.690  1.00  0.00     0.174 HD
ATOM     76  HE  ARG A 126     207.913 166.045 200.202  1.00  0.00     0.178 HD
ATOM     77  CA  LEU A 127     201.123 168.268 202.807  1.00153.88     0.160 C 
ATOM     78  CB  LEU A 127     200.758 168.860 204.171  1.00147.20     0.032 C 
ATOM     79  CG  LEU A 127     199.447 168.425 204.829  1.00145.17     0.002 C 
ATOM     80  CD1 LEU A 127     198.260 168.786 203.941  1.00 88.14     0.000 C 
ATOM     81  CD2 LEU A 127     199.459 166.933 205.130  1.00139.20     0.000 C 
ATOM     82  CA  GLU A 156     200.026 171.816 187.502  1.00 66.36     0.160 C 
ATOM     83  CB  GLU A 156     200.353 173.154 188.166  1.00 55.62     0.043 C 
ATOM     84  CG  GLU A 156     199.469 173.605 189.300  1.00 70.57     0.100 C 
ATOM     85  CD  GLU A 156     200.064 173.222 190.650  1.00 81.66     0.185 C 
ATOM     86  OE1 GLU A 156     200.523 174.125 191.382  1.00 65.56    -0.647 OA
ATOM     87  OE2 GLU A 156     200.059 172.018 190.984  1.00 89.99    -0.647 OA
ATOM     88  CA  VAL A 157     203.226 170.537 185.857  1.00 71.99     0.159 C 
ATOM     89  CB  VAL A 157     203.064 169.542 184.685  1.00 75.94     0.029 C 
ATOM     90  CG1 VAL A 157     203.766 168.236 184.994  1.00 76.66     0.002 C 
ATOM     91  CG2 VAL A 157     201.604 169.297 184.380  1.00 67.05     0.002 C 
ATOM     92  CA  ASP A 158     206.666 172.211 185.854  1.00 94.88     0.170 C 
ATOM     93  CB  ASP A 158     206.964 172.988 187.135  1.00104.96     0.129 C 
ATOM     94  CG  ASP A 158     206.292 172.386 188.353  1.00119.19     0.188 C 
ATOM     95  OD1 ASP A 158     205.151 172.788 188.669  1.00111.95    -0.647 OA
ATOM     96  OD2 ASP A 158     206.906 171.505 188.990  1.00131.05    -0.647 OA
ATOM     97  CA  THR A 235     212.747 184.477 187.590  1.00 53.73     0.186 C 
ATOM     98  CB  THR A 235     214.055 184.661 188.369  1.00 53.83     0.140 C 
ATOM     99  CG2 THR A 235     214.067 185.987 189.095  1.00 69.14     0.034 C 
ATOM    100  OG1 THR A 235     214.192 183.599 189.324  1.00 58.73    -0.382 OA
ATOM    101  HG1 THR A 235     214.815 182.962 188.996  1.00  0.00     0.210 HD
ATOM    102  CA  PHE A 301     206.276 185.417 186.926  1.00 52.37     0.164 C 
ATOM    103  CB  PHE A 301     207.456 184.607 186.381  1.00 49.06     0.058 C 
ATOM    104  CG  PHE A 301     208.582 185.432 185.846  1.00 51.77    -0.020 A 
ATOM    105  CD1 PHE A 301     209.172 185.125 184.628  1.00 53.15    -0.004 A 
ATOM    106  CE1 PHE A 301     210.210 185.895 184.128  1.00 57.48    -0.000 A 
ATOM    107  CZ  PHE A 301     210.648 186.998 184.830  1.00 55.39    -0.000 A 
ATOM    108  CE2 PHE A 301     210.051 187.329 186.035  1.00 55.43    -0.000 A 
ATOM    109  CD2 PHE A 301     209.019 186.552 186.533  1.00 51.71    -0.004 A 
ENDMDL
REMARK VINA RESULT:      -7.0      3.121      5.173
REMARK  15 active torsions:
REMARK  status: ('A' for Active; 'I' for Inactive)
REMARK    1  A    between atoms: C_3  and  C_23 
REMARK    2  A    between atoms: C_3  and  O_18 
REMARK    3  A    between atoms: C_8  and  N_30 
REMARK    4  A    between atoms: O_12  and  C_22 
REMARK    5  A    between atoms: O_13  and  C_24 
REMARK    6  A    between atoms: O_14  and  P_34 
REMARK    7  A    between atoms: O_15  and  P_35 
REMARK    8  A    between atoms: O_16  and  P_36 
REMARK    9  A    between atoms: O_17  and  P_36 
REMARK   10  A    between atoms: O_18  and  P_34 
REMARK   11  A    between atoms: O_19  and  P_34 
REMARK   12  A    between atoms: O_19  and  P_35 
REMARK   13  A    between atoms: O_20  and  P_35 
REMARK   14  A    between atoms: O_20  and  P_36 
REMARK   15  A    between atoms: C_21  and  N_39 
REMARK  2 active torsions:
REMARK  status: ('A' for Active; 'I' for Inactive)
REMARK    1  A    between atoms: CA   and  CB  
REMARK    2  A    between atoms: CB   and  OG  
REMARK  2 active torsions:
REMARK  status: ('A' for Active; 'I' for Inactive)
REMARK    3  A    between atoms: CA   and  CB  
REMARK    4  A    between atoms: CB   and  OG  
REMARK  1 active torsions:
REMARK  status: ('A' for Active; 'I' for Inactive)
REMARK    5  A    between atoms: CA   and  CB  
REMARK  2 active torsions:
REMARK  status: ('A' for Active; 'I' for Inactive)
REMARK    6  A    between atoms: CA   and  CB  
REMARK    7  A    between atoms: CB   and  OG  
REMARK  3 active torsions:
REMARK  status: ('A' for Active; 'I' for Inactive)
REMARK    8  A    between atoms: CA   and  CB  
REMARK    9  A    between atoms: CB   and  CG  
REMARK   10  A    between atoms: CZ   and  OH  
REMARK  2 active torsions:
REMARK  status: ('A' for Active; 'I' for Inactive)
REMARK   11  A    between atoms: CA   and  CB  
REMARK   12  A    between atoms: CB   and  CG  
REMARK       I    between atoms: CG   and  ND2 
REMARK  2 active torsions:
REMARK  status: ('A' for Active; 'I' for Inactive)
REMARK   13  A    between atoms: CA   and  CB  
REMARK   14  A    between atoms: CB   and  CG  
REMARK  4 active torsions:
REMARK  status: ('A' for Active; 'I' for Inactive)
REMARK   15  A    between atoms: CA   and  CB  
REMARK   16  A    between atoms: CB   and  CG  
REMARK   17  A    between atoms: CG   and  CD  
REMARK   18  A    between atoms: CD   and  NE  
REMARK       I    between atoms: NE   and  CZ  
REMARK       I    between atoms: CZ   and  NH1 
REMARK       I    between atoms: CZ   and  NH2 
REMARK  5 active torsions:
REMARK  status: ('A' for Active; 'I' for Inactive)
REMARK   19  A    between atoms: CA   and  CB  
REMARK   20  A    between atoms: CB   and  CG  
REMARK   21  A    between atoms: CG   and  CD  
REMARK   22  A    between atoms: CD   and  CE  
REMARK   23  A    between atoms: CE   and  NZ  
REMARK  4 active torsions:
REMARK  status: ('A' for Active; 'I' for Inactive)
REMARK   24  A    between atoms: CA   and  CB  
REMARK   25  A    between atoms: CB   and  CG  
REMARK   26  A    between atoms: CG   and  CD  
REMARK   27  A    between atoms: CD   and  NE  
REMARK       I    between atoms: NE   and  CZ  
REMARK       I    between atoms: CZ   and  NH1 
REMARK       I    between atoms: CZ   and  NH2 
REMARK  2 active torsions:
REMARK  status: ('A' for Active; 'I' for Inactive)
REMARK   28  A    between atoms: CA   and  CB  
REMARK   29  A    between atoms: CB   and  CG  
REMARK  3 active torsions:
REMARK  status: ('A' for Active; 'I' for Inactive)
REMARK   30  A    between atoms: CA   and  CB  
REMARK   31  A    between atoms: CB   and  CG  
REMARK   32  A    between atoms: CG   and  CD  
REMARK  1 active torsions:
REMARK  status: ('A' for Active; 'I' for Inactive)
REMARK   33  A    between atoms: CA   and  CB  
REMARK  2 active torsions:
REMARK  status: ('A' for Active; 'I' for Inactive)
REMARK   34  A    between atoms: CA   and  CB  
REMARK   35  A    between atoms: CB   and  CG  
REMARK  2 active torsions:
REMARK  status: ('A' for Active; 'I' for Inactive)
REMARK   36  A    between atoms: CA   and  CB  
REMARK   37  A    between atoms: CB   and  OG1 
REMARK  2 active torsions:
REMARK  status: ('A' for Active; 'I' for Inactive)
REMARK   38  A    between atoms: CA   and  CB  
REMARK   39  A    between atoms: CB   and  CG  
REMARK viewdock state: V
ATOM      1  C   LIG d   1     207.974 178.308 194.042  0.00  0.00     0.203 A 
ATOM      2  C   LIG d   1     210.398 176.547 190.868  0.00  0.00     0.225 A 
ATOM      3  C   LIG d   1     210.063 178.813 191.246  0.00  0.00     0.147 A 
ATOM      4  N   LIG d   1     209.666 176.080 191.905  0.00  0.00    -0.216 NA
ATOM      5  N   LIG d   1     208.541 179.198 193.253  0.00  0.00    -0.231 NA
ATOM      6  N   LIG d   1     210.619 177.828 190.503  0.00  0.00    -0.219 NA
ATOM      7  C   LIG d   1     209.117 177.099 192.591  0.00  0.00     0.167 A 
ATOM      8  C   LIG d   1     209.259 178.455 192.340  0.00  0.00     0.147 A 
ATOM      9  N   LIG d   1     208.305 177.026 193.692  0.00  0.00    -0.285 N 
ATOM     10  C   LIG d   1     207.854 175.797 194.320  0.00  0.00     0.253 C 
ATOM     11  O   LIG d   1     206.558 175.440 193.796  0.00  0.00    -0.346 OA
ATOM     12  C   LIG d   1     205.701 175.077 194.908  0.00  0.00     0.178 C 
ATOM     13  C   LIG d   1     206.618 174.882 196.111  0.00  0.00     0.178 C 
ATOM     14  C   LIG d   1     207.695 175.914 195.842  0.00  0.00     0.195 C 
ATOM     15  C   LIG d   1     204.875 173.849 194.541  0.00  0.00     0.206 C 
ATOM     16  O   LIG d   1     205.314 173.365 193.274  0.00  0.00    -0.284 OA
ATOM     17  P   LIG d   1     205.886 171.864 193.238  0.00  0.00     0.483 P 
ATOM     18  O   LIG d   1     205.150 170.886 194.087  0.00  0.00    -0.227 OA
ATOM     19  O   LIG d   1     207.430 172.044 193.552  0.00  0.00    -0.186 OA
ATOM     20  P   LIG d   1     208.464 170.853 193.710  0.00  0.00     0.492 P 
ATOM     21  O   LIG d   1     208.447 170.077 194.978  0.00  0.00    -0.227 OA
ATOM     22  O   LIG d   1     209.854 171.522 193.318  0.00  0.00    -0.186 OA
ATOM     23  P   LIG d   1     210.194 171.904 191.822  0.00  0.00     0.481 P 
ATOM     24  O   LIG d   1     211.243 172.925 191.568  0.00  0.00    -0.227 OA
ATOM     25  O   LIG d   1     208.778 172.316 191.209  0.00  0.00    -0.302 OA
ATOM     26  H   LIG d   1     208.304 171.538 190.857  0.00  0.00     0.222 HD
ATOM     27  O   LIG d   1     210.450 170.503 191.090  0.00  0.00    -0.302 OA
ATOM     28  H   LIG d   1     209.619 170.196 190.675  0.00  0.00     0.222 HD
ATOM     29  O   LIG d   1     208.155 169.967 192.405  0.00  0.00    -0.302 OA
ATOM     30  H   LIG d   1     207.208 170.055 192.159  0.00  0.00     0.222 HD
ATOM     31  O   LIG d   1     205.855 171.556 191.667  0.00  0.00    -0.302 OA
ATOM     32  H   LIG d   1     205.381 172.241 191.160  0.00  0.00     0.222 HD
ATOM     33  O   LIG d   1     207.202 173.578 196.131  0.00  0.00    -0.386 OA
ATOM     34  H   LIG d   1     207.885 173.589 195.426  0.00  0.00     0.210 HD
ATOM     35  O   LIG d   1     208.871 175.596 196.588  0.00  0.00    -0.385 OA
ATOM     36  H   LIG d   1     208.578 175.049 197.350  0.00  0.00     0.210 HD
ATOM     37  N   LIG d   1     210.299 180.130 190.874  0.00  0.00    -0.341 NA
ATOM     38  H   LIG d   1     209.449 180.649 190.679  0.00  0.00     0.144 HD
ATOM     39  H   LIG d   1     211.054 180.206 190.205  0.00  0.00     0.144 HD
ATOM      1  CA  SER A 272     219.500 182.733 197.389  1.00 76.05     0.189 C 
ATOM      2  CB  SER A 272     218.127 183.058 197.980  1.00 67.27     0.169 C 
ATOM      3  OG  SER A 272     218.257 183.790 199.188  1.00 67.48    -0.380 OA
ATOM      4  HG  SER A 272     218.997 183.479 199.696  1.00  0.00     0.211 HD
ATOM      5  CA  SER A 273     219.476 179.341 195.712  1.00 95.92     0.189 C 
ATOM      6  CB  SER A 273     220.525 178.254 195.952  1.00101.58     0.169 C 
ATOM      7  OG  SER A 273     221.162 177.898 194.736  1.00 85.34    -0.380 OA
ATOM      8  HG  SER A 273     220.851 178.443 194.023  1.00  0.00     0.211 HD
ATOM      9  CA  VAL A 274     216.112 178.448 197.254  1.00 73.25     0.159 C 
ATOM     10  CB  VAL A 274     215.954 178.192 198.764  1.00 64.82     0.029 C 
ATOM     11  CG2 VAL A 274     217.180 178.675 199.520  1.00 83.80     0.002 C 
ATOM     12  CG1 VAL A 274     215.680 176.724 199.036  1.00 74.90     0.002 C 
ATOM     13  CA  SER A 275     214.008 181.464 196.150  1.00 63.68     0.189 C 
ATOM     14  CB  SER A 275     213.202 181.973 197.344  1.00 53.99     0.169 C 
ATOM     15  OG  SER A 275     213.041 180.968 198.330  1.00 69.59    -0.380 OA
ATOM     16  HG  SER A 275     213.078 180.099 197.951  1.00  0.00     0.211 HD
ATOM     17  CA  TYR A 278     208.988 186.676 192.328  1.00 45.93     0.164 C 
ATOM     18  CB  TYR A 278     208.875 188.200 192.364  1.00 46.39     0.058 C 
ATOM     19  CG  TYR A 278     208.983 188.806 193.744  1.00 49.20    -0.020 A 
ATOM     20  CD2 TYR A 278     210.080 188.534 194.552  1.00 46.83    -0.002 A 
ATOM     21  CE2 TYR A 278     210.191 189.075 195.816  1.00 52.67     0.024 A 
ATOM     22  CZ  TYR A 278     209.198 189.901 196.290  1.00 55.35     0.089 A 
ATOM     23  CE1 TYR A 278     208.097 190.189 195.511  1.00 55.53     0.024 A 
ATOM     24  CD1 TYR A 278     207.994 189.642 194.244  1.00 50.19    -0.002 A 
ATOM     25  OH  TYR A 278     209.307 190.442 197.548  1.00 54.18    -0.359 OA
ATOM     26  HH  TYR A 278     209.128 189.903 198.309  1.00  0.00     0.217 HD
ATOM     27  CA  ASN A 279     205.913 184.718 191.231  1.00 49.32     0.169 C 
ATOM     28  CB  ASN A 279     206.291 183.397 190.562  1.00 41.19     0.119 C 
ATOM     29  CG  ASN A 279     205.149 182.806 189.773  1.00 49.81     0.230 C 
ATOM     30  OD1 ASN A 279     205.169 182.803 188.545  1.00 57.93    -0.273 OA
ATOM     31  ND2 ASN A 279     204.141 182.303 190.473  1.00 54.39    -0.369 N 
ATOM     32 2HD2 ASN A 279     204.125 182.306 191.493  1.00  0.00     0.159 HD
ATOM     33 1HD2 ASN A 279     203.370 181.903 189.940  1.00  0.00     0.159 HD
ATOM     34  CA  PHE A 280     202.335 184.098 192.325  1.00 48.50     0.164 C 
ATOM     35  CB  PHE A 280     201.775 185.418 192.860  1.00 46.97     0.058 C 
ATOM     36  CG  PHE A 280     201.752 185.495 194.352  1.00 48.53    -0.020 A 
ATOM     37  CD2 PHE A 280     202.612 186.349 195.030  1.00 47.66    -0.004 A 
ATOM     38  CE2 PHE A 280     202.596 186.413 196.411  1.00 56.11    -0.000 A 
ATOM     39  CZ  PHE A 280     201.718 185.614 197.130  1.00 54.55    -0.000 A 
ATOM     40  CE1 PHE A 280     200.861 184.760 196.465  1.00 58.17    -0.000 A 
ATOM     41  CD1 PHE A 280     200.882 184.700 195.083  1.00 57.66    -0.004 A 
ATOM     42  CA  ARG A 281     199.282 182.045 191.372  1.00 53.90     0.159 C 
ATOM     43  CB  ARG A 281     199.250 180.605 191.908  1.00 43.93     0.034 C 
ATOM     44  CG  ARG A 281     198.110 180.343 192.886  1.00 59.82     0.027 C 
ATOM     45  CD  ARG A 281     198.601 180.295 194.324  1.00 43.25     0.116 C 
ATOM     46  NE  ARG A 281     198.351 178.985 194.917  1.00 49.00    -0.212 N 
ATOM     47  CZ  ARG A 281     199.233 178.312 195.648  1.00 62.89     0.666 C 
ATOM     48  NH1 ARG A 281     200.438 178.819 195.876  1.00 74.80    -0.235 N 
ATOM     49  NH2 ARG A 281     198.911 177.131 196.147  1.00 61.99    -0.235 N 
ATOM     50 2HH1 ARG A 281     200.687 179.730 195.492  1.00  0.00     0.174 HD
ATOM     51 1HH1 ARG A 281     201.116 178.302 196.437  1.00  0.00     0.174 HD
ATOM     52 2HH2 ARG A 281     197.985 176.741 195.971  1.00  0.00     0.174 HD
ATOM     53 1HH2 ARG A 281     199.588 176.614 196.708  1.00  0.00     0.174 HD
ATOM     54  HE  ARG A 281     197.438 178.557 194.760  1.00  0.00     0.178 HD
ATOM     55  CA  LYS A 299     201.486 180.756 187.756  1.00 49.56     0.159 C 
ATOM     56  CB  LYS A 299     202.397 179.560 188.025  1.00 54.03     0.032 C 
ATOM     57  CG  LYS A 299     201.622 178.291 188.343  1.00 58.52     0.004 C 
ATOM     58  CD  LYS A 299     201.042 177.638 187.107  1.00 56.71     0.032 C 
ATOM     59  CE  LYS A 299     199.562 177.354 187.298  1.00 52.70     0.206 C 
ATOM     60  NZ  LYS A 299     199.036 176.425 186.270  1.00 62.42    -0.064 N 
ATOM     61  HZ3 LYS A 299     198.927 175.482 186.644  1.00  0.00     0.275 HD
ATOM     62  HZ2 LYS A 299     198.059 176.626 186.054  1.00  0.00     0.275 HD
ATOM     63  HZ1 LYS A 299     199.608 176.424 185.426  1.00  0.00     0.275 HD
ATOM     64  CA  ARG A 126     203.924 165.784 202.144  1.00149.40     0.159 C 
ATOM     65  CB  ARG A 126     204.246 164.987 200.881  1.00133.40     0.034 C 
ATOM     66  CG  ARG A 126     204.473 165.830 199.637  1.00130.01     0.027 C 
ATOM     67  CD  ARG A 126     205.961 166.013 199.383  1.00131.26     0.116 C 
ATOM     68  NE  ARG A 126     206.236 166.885 198.244  1.00126.38    -0.212 N 
ATOM     69  CZ  ARG A 126     206.876 168.045 198.335  1.00123.75     0.666 C 
ATOM     70  NH1 ARG A 126     207.311 168.470 199.513  1.00121.38    -0.235 N 
ATOM     71  NH2 ARG A 126     207.085 168.781 197.253  1.00134.78    -0.235 N 
ATOM     72 2HH1 ARG A 126     207.150 167.903 200.346  1.00  0.00     0.174 HD
ATOM     73 1HH1 ARG A 126     207.803 169.360 199.584  1.00  0.00     0.174 HD
ATOM     74 2HH2 ARG A 126     206.751 168.455 196.346  1.00  0.00     0.174 HD
ATOM     75 1HH2 ARG A 126     207.577 169.672 197.323  1.00  0.00     0.174 HD
ATOM     76  HE  ARG A 126     205.917 166.584 197.323  1.00  0.00     0.178 HD
ATOM     77  CA  LEU A 127     201.123 168.268 202.807  1.00153.88     0.160 C 
ATOM     78  CB  LEU A 127     200.758 168.860 204.171  1.00147.20     0.032 C 
ATOM     79  CG  LEU A 127     199.437 168.441 204.820  1.00145.17     0.002 C 
ATOM     80  CD1 LEU A 127     198.279 168.642 203.847  1.00 88.14     0.000 C 
ATOM     81  CD2 LEU A 127     199.498 166.996 205.292  1.00139.20     0.000 C 
ATOM     82  CA  GLU A 156     200.026 171.816 187.502  1.00 66.36     0.160 C 
ATOM     83  CB  GLU A 156     200.353 173.154 188.166  1.00 55.62     0.043 C 
ATOM     84  CG  GLU A 156     199.427 173.639 189.252  1.00 70.57     0.100 C 
ATOM     85  CD  GLU A 156     199.947 173.257 190.632  1.00 81.66     0.185 C 
ATOM     86  OE1 GLU A 156     199.781 172.085 191.034  1.00 65.56    -0.647 OA
ATOM     87  OE2 GLU A 156     200.536 174.127 191.309  1.00 89.99    -0.647 OA
ATOM     88  CA  VAL A 157     203.226 170.537 185.857  1.00 71.99     0.159 C 
ATOM     89  CB  VAL A 157     203.064 169.542 184.685  1.00 75.94     0.029 C 
ATOM     90  CG1 VAL A 157     203.646 168.191 185.048  1.00 76.66     0.002 C 
ATOM     91  CG2 VAL A 157     201.612 169.402 184.290  1.00 67.05     0.002 C 
ATOM     92  CA  ASP A 158     206.666 172.211 185.854  1.00 94.88     0.170 C 
ATOM     93  CB  ASP A 158     206.964 172.988 187.135  1.00104.96     0.129 C 
ATOM     94  CG  ASP A 158     206.427 172.300 188.374  1.00119.19     0.188 C 
ATOM     95  OD1 ASP A 158     205.329 172.675 188.841  1.00111.95    -0.647 OA
ATOM     96  OD2 ASP A 158     207.103 171.378 188.877  1.00131.05    -0.647 OA
ATOM     97  CA  THR A 235     212.747 184.477 187.590  1.00 53.73     0.186 C 
ATOM     98  CB  THR A 235     214.055 184.661 188.369  1.00 53.83     0.140 C 
ATOM     99  CG2 THR A 235     214.343 183.452 189.231  1.00 69.14     0.034 C 
ATOM    100  OG1 THR A 235     215.135 184.850 187.444  1.00 58.73    -0.382 OA
ATOM    101  HG1 THR A 235     215.657 184.057 187.407  1.00  0.00     0.210 HD
ATOM    102  CA  PHE A 301     206.276 185.417 186.926  1.00 52.37     0.164 C 
ATOM    103  CB  PHE A 301     207.456 184.607 186.381  1.00 49.06     0.058 C 
ATOM    104  CG  PHE A 301     208.597 185.432 185.879  1.00 51.77    -0.020 A 
ATOM    105  CD1 PHE A 301     208.921 186.639 186.483  1.00 53.15    -0.004 A 
ATOM    106  CE1 PHE A 301     209.984 187.400 186.022  1.00 57.48    -0.000 A 
ATOM    107  CZ  PHE A 301     210.751 186.945 184.971  1.00 55.39    -0.000 A 
ATOM    108  CE2 PHE A 301     210.452 185.730 184.375  1.00 55.43    -0.000 A 
ATOM    109  CD2 PHE A 301     209.385 184.978 184.834  1.00 51.71    -0.004 A 
ENDMDL
REMARK VINA RESULT:      -7.0      4.189      7.422
REMARK  15 active torsions:
REMARK  status: ('A' for Active; 'I' for Inactive)
REMARK    1  A    between atoms: C_3  and  C_23 
REMARK    2  A    between atoms: C_3  and  O_18 
REMARK    3  A    between atoms: C_8  and  N_30 
REMARK    4  A    between atoms: O_12  and  C_22 
REMARK    5  A    between atoms: O_13  and  C_24 
REMARK    6  A    between atoms: O_14  and  P_34 
REMARK    7  A    between atoms: O_15  and  P_35 
REMARK    8  A    between atoms: O_16  and  P_36 
REMARK    9  A    between atoms: O_17  and  P_36 
REMARK   10  A    between atoms: O_18  and  P_34 
REMARK   11  A    between atoms: O_19  and  P_34 
REMARK   12  A    between atoms: O_19  and  P_35 
REMARK   13  A    between atoms: O_20  and  P_35 
REMARK   14  A    between atoms: O_20  and  P_36 
REMARK   15  A    between atoms: C_21  and  N_39 
REMARK  2 active torsions:
REMARK  status: ('A' for Active; 'I' for Inactive)
REMARK    1  A    between atoms: CA   and  CB  
REMARK    2  A    between atoms: CB   and  OG  
REMARK  2 active torsions:
REMARK  status: ('A' for Active; 'I' for Inactive)
REMARK    3  A    between atoms: CA   and  CB  
REMARK    4  A    between atoms: CB   and  OG  
REMARK  1 active torsions:
REMARK  status: ('A' for Active; 'I' for Inactive)
REMARK    5  A    between atoms: CA   and  CB  
REMARK  2 active torsions:
REMARK  status: ('A' for Active; 'I' for Inactive)
REMARK    6  A    between atoms: CA   and  CB  
REMARK    7  A    between atoms: CB   and  OG  
REMARK  3 active torsions:
REMARK  status: ('A' for Active; 'I' for Inactive)
REMARK    8  A    between atoms: CA   and  CB  
REMARK    9  A    between atoms: CB   and  CG  
REMARK   10  A    between atoms: CZ   and  OH  
REMARK  2 active torsions:
REMARK  status: ('A' for Active; 'I' for Inactive)
REMARK   11  A    between atoms: CA   and  CB  
REMARK   12  A    between atoms: CB   and  CG  
REMARK       I    between atoms: CG   and  ND2 
REMARK  2 active torsions:
REMARK  status: ('A' for Active; 'I' for Inactive)
REMARK   13  A    between atoms: CA   and  CB  
REMARK   14  A    between atoms: CB   and  CG  
REMARK  4 active torsions:
REMARK  status: ('A' for Active; 'I' for Inactive)
REMARK   15  A    between atoms: CA   and  CB  
REMARK   16  A    between atoms: CB   and  CG  
REMARK   17  A    between atoms: CG   and  CD  
REMARK   18  A    between atoms: CD   and  NE  
REMARK       I    between atoms: NE   and  CZ  
REMARK       I    between atoms: CZ   and  NH1 
REMARK       I    between atoms: CZ   and  NH2 
REMARK  5 active torsions:
REMARK  status: ('A' for Active; 'I' for Inactive)
REMARK   19  A    between atoms: CA   and  CB  
REMARK   20  A    between atoms: CB   and  CG  
REMARK   21  A    between atoms: CG   and  CD  
REMARK   22  A    between atoms: CD   and  CE  
REMARK   23  A    between atoms: CE   and  NZ  
REMARK  4 active torsions:
REMARK  status: ('A' for Active; 'I' for Inactive)
REMARK   24  A    between atoms: CA   and  CB  
REMARK   25  A    between atoms: CB   and  CG  
REMARK   26  A    between atoms: CG   and  CD  
REMARK   27  A    between atoms: CD   and  NE  
REMARK       I    between atoms: NE   and  CZ  
REMARK       I    between atoms: CZ   and  NH1 
REMARK       I    between atoms: CZ   and  NH2 
REMARK  2 active torsions:
REMARK  status: ('A' for Active; 'I' for Inactive)
REMARK   28  A    between atoms: CA   and  CB  
REMARK   29  A    between atoms: CB   and  CG  
REMARK  3 active torsions:
REMARK  status: ('A' for Active; 'I' for Inactive)
REMARK   30  A    between atoms: CA   and  CB  
REMARK   31  A    between atoms: CB   and  CG  
REMARK   32  A    between atoms: CG   and  CD  
REMARK  1 active torsions:
REMARK  status: ('A' for Active; 'I' for Inactive)
REMARK   33  A    between atoms: CA   and  CB  
REMARK  2 active torsions:
REMARK  status: ('A' for Active; 'I' for Inactive)
REMARK   34  A    between atoms: CA   and  CB  
REMARK   35  A    between atoms: CB   and  CG  
REMARK  2 active torsions:
REMARK  status: ('A' for Active; 'I' for Inactive)
REMARK   36  A    between atoms: CA   and  CB  
REMARK   37  A    between atoms: CB   and  OG1 
REMARK  2 active torsions:
REMARK  status: ('A' for Active; 'I' for Inactive)
REMARK   38  A    between atoms: CA   and  CB  
REMARK   39  A    between atoms: CB   and  CG  
REMARK viewdock state: V
ATOM      1  C   LIG d   1     204.718 173.572 192.367  0.00  0.00     0.203 A 
ATOM      2  C   LIG d   1     203.698 174.750 196.445  0.00  0.00     0.225 A 
ATOM      3  C   LIG d   1     202.208 174.418 194.695  0.00  0.00     0.147 A 
ATOM      4  N   LIG d   1     204.832 174.440 195.777  0.00  0.00    -0.216 NA
ATOM      5  N   LIG d   1     203.426 173.745 192.561  0.00  0.00    -0.231 NA
ATOM      6  N   LIG d   1     202.429 174.762 195.985  0.00  0.00    -0.219 NA
ATOM      7  C   LIG d   1     204.557 174.133 194.496  0.00  0.00     0.167 A 
ATOM      8  C   LIG d   1     203.312 174.096 193.890  0.00  0.00     0.147 A 
ATOM      9  N   LIG d   1     205.442 173.779 193.511  0.00  0.00    -0.285 N 
ATOM     10  C   LIG d   1     206.883 173.697 193.669  0.00  0.00     0.253 C 
ATOM     11  O   LIG d   1     207.273 172.313 193.775  0.00  0.00    -0.346 OA
ATOM     12  C   LIG d   1     208.209 172.187 194.876  0.00  0.00     0.178 C 
ATOM     13  C   LIG d   1     208.655 173.602 195.226  0.00  0.00     0.178 C 
ATOM     14  C   LIG d   1     207.397 174.398 194.934  0.00  0.00     0.195 C 
ATOM     15  C   LIG d   1     209.345 171.248 194.482  0.00  0.00     0.206 C 
ATOM     16  O   LIG d   1     209.459 171.243 193.061  0.00  0.00    -0.284 OA
ATOM     17  P   LIG d   1     208.897 169.943 192.301  0.00  0.00     0.483 P 
ATOM     18  O   LIG d   1     208.291 168.907 193.183  0.00  0.00    -0.227 OA
ATOM     19  O   LIG d   1     210.119 169.475 191.405  0.00  0.00    -0.186 OA
ATOM     20  P   LIG d   1     210.193 168.095 190.629  0.00  0.00     0.492 P 
ATOM     21  O   LIG d   1     211.409 167.813 189.821  0.00  0.00    -0.227 OA
ATOM     22  O   LIG d   1     208.808 168.040 189.848  0.00  0.00    -0.186 OA
ATOM     23  P   LIG d   1     208.674 168.566 188.362  0.00  0.00     0.481 P 
ATOM     24  O   LIG d   1     209.282 167.767 187.267  0.00  0.00    -0.227 OA
ATOM     25  O   LIG d   1     209.259 170.050 188.436  0.00  0.00    -0.302 OA
ATOM     26  H   LIG d   1     210.040 170.153 187.859  0.00  0.00     0.222 HD
ATOM     27  O   LIG d   1     207.111 168.860 188.172  0.00  0.00    -0.302 OA
ATOM     28  H   LIG d   1     206.594 168.099 188.503  0.00  0.00     0.222 HD
ATOM     29  O   LIG d   1     209.939 167.034 191.810  0.00  0.00    -0.302 OA
ATOM     30  H   LIG d   1     210.777 166.867 192.293  0.00  0.00     0.222 HD
ATOM     31  O   LIG d   1     207.891 170.609 191.247  0.00  0.00    -0.302 OA
ATOM     32  H   LIG d   1     207.580 169.976 190.574  0.00  0.00     0.222 HD
ATOM     33  O   LIG d   1     209.711 174.054 194.376  0.00  0.00    -0.386 OA
ATOM     34  H   LIG d   1     209.828 173.345 193.708  0.00  0.00     0.210 HD
ATOM     35  O   LIG d   1     207.724 175.777 194.758  0.00  0.00    -0.385 OA
ATOM     36  H   LIG d   1     208.247 176.042 195.547  0.00  0.00     0.210 HD
ATOM     37  N   LIG d   1     200.900 174.423 194.228  0.00  0.00    -0.341 NA
ATOM     38  H   LIG d   1     200.258 173.923 194.834  0.00  0.00     0.144 HD
ATOM     39  H   LIG d   1     200.851 174.230 193.237  0.00  0.00     0.144 HD
ATOM      1  CA  SER A 272     219.500 182.733 197.389  1.00 76.05     0.189 C 
ATOM      2  CB  SER A 272     218.127 183.058 197.980  1.00 67.27     0.169 C 
ATOM      3  OG  SER A 272     217.393 183.911 197.116  1.00 67.48    -0.380 OA
ATOM      4  HG  SER A 272     216.600 184.220 197.538  1.00  0.00     0.211 HD
ATOM      5  CA  SER A 273     219.476 179.341 195.712  1.00 95.92     0.189 C 
ATOM      6  CB  SER A 273     220.525 178.254 195.952  1.00101.58     0.169 C 
ATOM      7  OG  SER A 273     221.162 177.898 194.736  1.00 85.34    -0.380 OA
ATOM      8  HG  SER A 273     220.521 177.631 194.088  1.00  0.00     0.211 HD
ATOM      9  CA  VAL A 274     216.112 178.448 197.254  1.00 73.25     0.159 C 
ATOM     10  CB  VAL A 274     215.954 178.192 198.764  1.00 64.82     0.029 C 
ATOM     11  CG2 VAL A 274     217.181 178.671 199.519  1.00 83.80     0.002 C 
ATOM     12  CG1 VAL A 274     215.676 176.724 199.036  1.00 74.90     0.002 C 
ATOM     13  CA  SER A 275     214.008 181.464 196.150  1.00 63.68     0.189 C 
ATOM     14  CB  SER A 275     213.202 181.973 197.344  1.00 53.99     0.169 C 
ATOM     15  OG  SER A 275     214.025 182.175 198.480  1.00 69.59    -0.380 OA
ATOM     16  HG  SER A 275     214.861 181.735 198.387  1.00  0.00     0.211 HD
ATOM     17  CA  TYR A 278     208.988 186.676 192.328  1.00 45.93     0.164 C 
ATOM     18  CB  TYR A 278     208.875 188.200 192.364  1.00 46.39     0.058 C 
ATOM     19  CG  TYR A 278     209.004 188.808 193.742  1.00 49.20    -0.020 A 
ATOM     20  CD2 TYR A 278     209.902 188.284 194.664  1.00 46.83    -0.002 A 
ATOM     21  CE2 TYR A 278     210.027 188.824 195.927  1.00 52.67     0.024 A 
ATOM     22  CZ  TYR A 278     209.250 189.902 196.285  1.00 55.35     0.089 A 
ATOM     23  CE1 TYR A 278     208.351 190.442 195.390  1.00 55.53     0.024 A 
ATOM     24  CD1 TYR A 278     208.231 189.895 194.126  1.00 50.19    -0.002 A 
ATOM     25  OH  TYR A 278     209.375 190.442 197.542  1.00 54.18    -0.359 OA
ATOM     26  HH  TYR A 278     209.563 189.875 198.281  1.00  0.00     0.217 HD
ATOM     27  CA  ASN A 279     205.913 184.718 191.231  1.00 49.32     0.169 C 
ATOM     28  CB  ASN A 279     206.291 183.397 190.562  1.00 41.19     0.119 C 
ATOM     29  CG  ASN A 279     205.154 182.814 189.761  1.00 49.81     0.230 C 
ATOM     30  OD1 ASN A 279     205.190 182.807 188.533  1.00 57.93    -0.273 OA
ATOM     31  ND2 ASN A 279     204.133 182.321 190.449  1.00 54.39    -0.369 N 
ATOM     32 2HD2 ASN A 279     204.104 182.327 191.469  1.00  0.00     0.159 HD
ATOM     33 1HD2 ASN A 279     203.365 181.927 189.907  1.00  0.00     0.159 HD
ATOM     34  CA  PHE A 280     202.335 184.098 192.325  1.00 48.50     0.164 C 
ATOM     35  CB  PHE A 280     201.775 185.418 192.860  1.00 46.97     0.058 C 
ATOM     36  CG  PHE A 280     201.714 185.480 194.352  1.00 48.53    -0.020 A 
ATOM     37  CD2 PHE A 280     202.610 186.265 195.065  1.00 47.66    -0.004 A 
ATOM     38  CE2 PHE A 280     202.558 186.315 196.446  1.00 56.11    -0.000 A 
ATOM     39  CZ  PHE A 280     201.609 185.568 197.129  1.00 54.55    -0.000 A 
ATOM     40  CE1 PHE A 280     200.715 184.781 196.429  1.00 58.17    -0.000 A 
ATOM     41  CD1 PHE A 280     200.773 184.736 195.047  1.00 57.66    -0.004 A 
ATOM     42  CA  ARG A 281     199.282 182.045 191.372  1.00 53.90     0.159 C 
ATOM     43  CB  ARG A 281     199.250 180.605 191.908  1.00 43.93     0.034 C 
ATOM     44  CG  ARG A 281     197.980 180.270 192.682  1.00 59.82     0.027 C 
ATOM     45  CD  ARG A 281     198.258 180.074 194.164  1.00 43.25     0.116 C 
ATOM     46  NE  ARG A 281     197.782 178.771 194.617  1.00 49.00    -0.212 N 
ATOM     47  CZ  ARG A 281     198.517 177.900 195.298  1.00 62.89     0.666 C 
ATOM     48  NH1 ARG A 281     199.777 178.183 195.606  1.00 74.80    -0.235 N 
ATOM     49  NH2 ARG A 281     197.994 176.743 195.668  1.00 61.99    -0.235 N 
ATOM     50 2HH1 ARG A 281     200.181 179.076 195.320  1.00  0.00     0.174 HD
ATOM     51 1HH1 ARG A 281     200.342 177.514 196.129  1.00  0.00     0.174 HD
ATOM     52 2HH2 ARG A 281     197.026 176.525 195.432  1.00  0.00     0.174 HD
ATOM     53 1HH2 ARG A 281     198.559 176.075 196.192  1.00  0.00     0.174 HD
ATOM     54  HE  ARG A 281     196.821 178.512 194.395  1.00  0.00     0.178 HD
ATOM     55  CA  LYS A 299     201.486 180.756 187.756  1.00 49.56     0.159 C 
ATOM     56  CB  LYS A 299     202.397 179.560 188.025  1.00 54.03     0.032 C 
ATOM     57  CG  LYS A 299     201.623 178.298 188.370  1.00 58.52     0.004 C 
ATOM     58  CD  LYS A 299     201.058 177.609 187.146  1.00 56.71     0.032 C 
ATOM     59  CE  LYS A 299     199.578 177.319 187.332  1.00 52.70     0.206 C 
ATOM     60  NZ  LYS A 299     199.043 176.443 186.263  1.00 62.42    -0.064 N 
ATOM     61  HZ3 LYS A 299     198.496 175.675 186.653  1.00  0.00     0.275 HD
ATOM     62  HZ2 LYS A 299     198.309 176.912 185.733  1.00  0.00     0.275 HD
ATOM     63  HZ1 LYS A 299     199.780 176.097 185.647  1.00  0.00     0.275 HD
ATOM     64  CA  ARG A 126     203.924 165.784 202.144  1.00149.40     0.159 C 
ATOM     65  CB  ARG A 126     204.246 164.987 200.881  1.00133.40     0.034 C 
ATOM     66  CG  ARG A 126     204.888 165.794 199.765  1.00130.01     0.027 C 
ATOM     67  CD  ARG A 126     206.329 166.132 200.115  1.00131.26     0.116 C 
ATOM     68  NE  ARG A 126     206.802 167.344 199.452  1.00126.38    -0.212 N 
ATOM     69  CZ  ARG A 126     207.937 167.420 198.766  1.00123.75     0.666 C 
ATOM     70  NH1 ARG A 126     208.713 166.352 198.650  1.00121.38    -0.235 N 
ATOM     71  NH2 ARG A 126     208.298 168.560 198.194  1.00134.78    -0.235 N 
ATOM     72 2HH1 ARG A 126     208.435 165.474 199.090  1.00  0.00     0.174 HD
ATOM     73 1HH1 ARG A 126     209.584 166.409 198.122  1.00  0.00     0.174 HD
ATOM     74 2HH2 ARG A 126     207.702 169.382 198.283  1.00  0.00     0.174 HD
ATOM     75 1HH2 ARG A 126     209.170 168.618 197.667  1.00  0.00     0.174 HD
ATOM     76  HE  ARG A 126     206.226 168.183 199.520  1.00  0.00     0.178 HD
ATOM     77  CA  LEU A 127     201.123 168.268 202.807  1.00153.88     0.160 C 
ATOM     78  CB  LEU A 127     200.758 168.860 204.171  1.00147.20     0.032 C 
ATOM     79  CG  LEU A 127     199.425 168.461 204.808  1.00145.17     0.002 C 
ATOM     80  CD1 LEU A 127     198.326 168.407 203.751  1.00 88.14     0.000 C 
ATOM     81  CD2 LEU A 127     199.545 167.126 205.528  1.00139.20     0.000 C 
ATOM     82  CA  GLU A 156     200.026 171.816 187.502  1.00 66.36     0.160 C 
ATOM     83  CB  GLU A 156     200.353 173.154 188.166  1.00 55.62     0.043 C 
ATOM     84  CG  GLU A 156     199.374 173.687 189.181  1.00 70.57     0.100 C 
ATOM     85  CD  GLU A 156     199.782 173.300 190.597  1.00 81.66     0.185 C 
ATOM     86  OE1 GLU A 156     199.511 172.151 191.008  1.00 65.56    -0.647 OA
ATOM     87  OE2 GLU A 156     200.386 174.142 191.295  1.00 89.99    -0.647 OA
ATOM     88  CA  VAL A 157     203.226 170.537 185.857  1.00 71.99     0.159 C 
ATOM     89  CB  VAL A 157     203.064 169.542 184.685  1.00 75.94     0.029 C 
ATOM     90  CG1 VAL A 157     203.747 168.227 185.003  1.00 76.66     0.002 C 
ATOM     91  CG2 VAL A 157     201.604 169.315 184.365  1.00 67.05     0.002 C 
ATOM     92  CA  ASP A 158     206.666 172.211 185.854  1.00 94.88     0.170 C 
ATOM     93  CB  ASP A 158     206.964 172.988 187.135  1.00104.96     0.129 C 
ATOM     94  CG  ASP A 158     206.207 172.451 188.334  1.00119.19     0.188 C 
ATOM     95  OD1 ASP A 158     206.710 171.513 188.990  1.00111.95    -0.647 OA
ATOM     96  OD2 ASP A 158     205.110 172.975 188.621  1.00131.05    -0.647 OA
ATOM     97  CA  THR A 235     212.747 184.477 187.590  1.00 53.73     0.186 C 
ATOM     98  CB  THR A 235     214.055 184.661 188.369  1.00 53.83     0.140 C 
ATOM     99  CG2 THR A 235     214.359 183.440 189.207  1.00 69.14     0.034 C 
ATOM    100  OG1 THR A 235     215.131 184.879 187.445  1.00 58.73    -0.382 OA
ATOM    101  HG1 THR A 235     215.772 184.185 187.542  1.00  0.00     0.210 HD
ATOM    102  CA  PHE A 301     206.276 185.417 186.926  1.00 52.37     0.164 C 
ATOM    103  CB  PHE A 301     207.456 184.607 186.381  1.00 49.06     0.058 C 
ATOM    104  CG  PHE A 301     208.588 185.432 185.860  1.00 51.77    -0.020 A 
ATOM    105  CD1 PHE A 301     208.943 186.623 186.478  1.00 53.15    -0.004 A 
ATOM    106  CE1 PHE A 301     209.997 187.384 185.999  1.00 57.48    -0.000 A 
ATOM    107  CZ  PHE A 301     210.726 186.944 184.914  1.00 55.39    -0.000 A 
ATOM    108  CE2 PHE A 301     210.397 185.745 184.304  1.00 55.43    -0.000 A 
ATOM    109  CD2 PHE A 301     209.338 184.993 184.781  1.00 51.71    -0.004 A 
ENDMDL
REMARK VINA RESULT:      -6.9      3.116      5.187
REMARK  15 active torsions:
REMARK  status: ('A' for Active; 'I' for Inactive)
REMARK    1  A    between atoms: C_3  and  C_23 
REMARK    2  A    between atoms: C_3  and  O_18 
REMARK    3  A    between atoms: C_8  and  N_30 
REMARK    4  A    between atoms: O_12  and  C_22 
REMARK    5  A    between atoms: O_13  and  C_24 
REMARK    6  A    between atoms: O_14  and  P_34 
REMARK    7  A    between atoms: O_15  and  P_35 
REMARK    8  A    between atoms: O_16  and  P_36 
REMARK    9  A    between atoms: O_17  and  P_36 
REMARK   10  A    between atoms: O_18  and  P_34 
REMARK   11  A    between atoms: O_19  and  P_34 
REMARK   12  A    between atoms: O_19  and  P_35 
REMARK   13  A    between atoms: O_20  and  P_35 
REMARK   14  A    between atoms: O_20  and  P_36 
REMARK   15  A    between atoms: C_21  and  N_39 
REMARK  2 active torsions:
REMARK  status: ('A' for Active; 'I' for Inactive)
REMARK    1  A    between atoms: CA   and  CB  
REMARK    2  A    between atoms: CB   and  OG  
REMARK  2 active torsions:
REMARK  status: ('A' for Active; 'I' for Inactive)
REMARK    3  A    between atoms: CA   and  CB  
REMARK    4  A    between atoms: CB   and  OG  
REMARK  1 active torsions:
REMARK  status: ('A' for Active; 'I' for Inactive)
REMARK    5  A    between atoms: CA   and  CB  
REMARK  2 active torsions:
REMARK  status: ('A' for Active; 'I' for Inactive)
REMARK    6  A    between atoms: CA   and  CB  
REMARK    7  A    between atoms: CB   and  OG  
REMARK  3 active torsions:
REMARK  status: ('A' for Active; 'I' for Inactive)
REMARK    8  A    between atoms: CA   and  CB  
REMARK    9  A    between atoms: CB   and  CG  
REMARK   10  A    between atoms: CZ   and  OH  
REMARK  2 active torsions:
REMARK  status: ('A' for Active; 'I' for Inactive)
REMARK   11  A    between atoms: CA   and  CB  
REMARK   12  A    between atoms: CB   and  CG  
REMARK       I    between atoms: CG   and  ND2 
REMARK  2 active torsions:
REMARK  status: ('A' for Active; 'I' for Inactive)
REMARK   13  A    between atoms: CA   and  CB  
REMARK   14  A    between atoms: CB   and  CG  
REMARK  4 active torsions:
REMARK  status: ('A' for Active; 'I' for Inactive)
REMARK   15  A    between atoms: CA   and  CB  
REMARK   16  A    between atoms: CB   and  CG  
REMARK   17  A    between atoms: CG   and  CD  
REMARK   18  A    between atoms: CD   and  NE  
REMARK       I    between atoms: NE   and  CZ  
REMARK       I    between atoms: CZ   and  NH1 
REMARK       I    between atoms: CZ   and  NH2 
REMARK  5 active torsions:
REMARK  status: ('A' for Active; 'I' for Inactive)
REMARK   19  A    between atoms: CA   and  CB  
REMARK   20  A    between atoms: CB   and  CG  
REMARK   21  A    between atoms: CG   and  CD  
REMARK   22  A    between atoms: CD   and  CE  
REMARK   23  A    between atoms: CE   and  NZ  
REMARK  4 active torsions:
REMARK  status: ('A' for Active; 'I' for Inactive)
REMARK   24  A    between atoms: CA   and  CB  
REMARK   25  A    between atoms: CB   and  CG  
REMARK   26  A    between atoms: CG   and  CD  
REMARK   27  A    between atoms: CD   and  NE  
REMARK       I    between atoms: NE   and  CZ  
REMARK       I    between atoms: CZ   and  NH1 
REMARK       I    between atoms: CZ   and  NH2 
REMARK  2 active torsions:
REMARK  status: ('A' for Active; 'I' for Inactive)
REMARK   28  A    between atoms: CA   and  CB  
REMARK   29  A    between atoms: CB   and  CG  
REMARK  3 active torsions:
REMARK  status: ('A' for Active; 'I' for Inactive)
REMARK   30  A    between atoms: CA   and  CB  
REMARK   31  A    between atoms: CB   and  CG  
REMARK   32  A    between atoms: CG   and  CD  
REMARK  1 active torsions:
REMARK  status: ('A' for Active; 'I' for Inactive)
REMARK   33  A    between atoms: CA   and  CB  
REMARK  2 active torsions:
REMARK  status: ('A' for Active; 'I' for Inactive)
REMARK   34  A    between atoms: CA   and  CB  
REMARK   35  A    between atoms: CB   and  CG  
REMARK  2 active torsions:
REMARK  status: ('A' for Active; 'I' for Inactive)
REMARK   36  A    between atoms: CA   and  CB  
REMARK   37  A    between atoms: CB   and  OG1 
REMARK  2 active torsions:
REMARK  status: ('A' for Active; 'I' for Inactive)
REMARK   38  A    between atoms: CA   and  CB  
REMARK   39  A    between atoms: CB   and  CG  
REMARK viewdock state: V
ATOM      1  C   LIG d   1     206.191 171.460 194.797  0.00  0.00     0.203 A 
ATOM      2  C   LIG d   1     203.407 173.789 192.372  0.00  0.00     0.225 A 
ATOM      3  C   LIG d   1     203.724 171.490 192.277  0.00  0.00     0.147 A 
ATOM      4  N   LIG d   1     204.288 174.052 193.364  0.00  0.00    -0.216 NA
ATOM      5  N   LIG d   1     205.496 170.734 193.946  0.00  0.00    -0.231 NA
ATOM      6  N   LIG d   1     203.101 172.598 191.814  0.00  0.00    -0.219 NA
ATOM      7  C   LIG d   1     204.896 172.921 193.767  0.00  0.00     0.167 A 
ATOM      8  C   LIG d   1     204.681 171.637 193.295  0.00  0.00     0.147 A 
ATOM      9  N   LIG d   1     205.854 172.786 194.738  0.00  0.00    -0.285 N 
ATOM     10  C   LIG d   1     206.423 173.875 195.511  0.00  0.00     0.253 C 
ATOM     11  O   LIG d   1     207.862 173.785 195.476  0.00  0.00    -0.346 OA
ATOM     12  C   LIG d   1     208.363 173.973 196.825  0.00  0.00     0.178 C 
ATOM     13  C   LIG d   1     207.204 174.534 197.640  0.00  0.00     0.178 C 
ATOM     14  C   LIG d   1     206.016 173.849 196.991  0.00  0.00     0.195 C 
ATOM     15  C   LIG d   1     209.601 174.863 196.794  0.00  0.00     0.206 C 
ATOM     16  O   LIG d   1     209.577 175.637 195.596  0.00  0.00    -0.284 OA
ATOM     17  P   LIG d   1     209.711 177.229 195.769  0.00  0.00     0.483 P 
ATOM     18  O   LIG d   1     209.549 177.731 197.161  0.00  0.00    -0.227 OA
ATOM     19  O   LIG d   1     208.703 177.808 194.691  0.00  0.00    -0.186 OA
ATOM     20  P   LIG d   1     209.033 178.991 193.689  0.00  0.00     0.492 P 
ATOM     21  O   LIG d   1     209.814 178.672 192.464  0.00  0.00    -0.227 OA
ATOM     22  O   LIG d   1     209.645 180.113 194.636  0.00  0.00    -0.186 OA
ATOM     23  P   LIG d   1     208.720 181.115 195.437  0.00  0.00     0.481 P 
ATOM     24  O   LIG d   1     208.057 182.219 194.696  0.00  0.00    -0.227 OA
ATOM     25  O   LIG d   1     209.667 181.645 196.608  0.00  0.00    -0.302 OA
ATOM     26  H   LIG d   1     209.275 182.416 197.060  0.00  0.00     0.222 HD
ATOM     27  O   LIG d   1     207.714 180.176 196.257  0.00  0.00    -0.302 OA
ATOM     28  H   LIG d   1     208.197 179.743 196.989  0.00  0.00     0.222 HD
ATOM     29  O   LIG d   1     207.571 179.589 193.387  0.00  0.00    -0.302 OA
ATOM     30  H   LIG d   1     207.499 179.826 192.436  0.00  0.00     0.222 HD
ATOM     31  O   LIG d   1     211.150 177.493 195.116  0.00  0.00    -0.302 OA
ATOM     32  H   LIG d   1     211.108 178.083 194.341  0.00  0.00     0.222 HD
ATOM     33  O   LIG d   1     207.079 175.949 197.485  0.00  0.00    -0.386 OA
ATOM     34  H   LIG d   1     207.516 176.336 198.273  0.00  0.00     0.210 HD
ATOM     35  O   LIG d   1     204.818 174.565 197.290  0.00  0.00    -0.385 OA
ATOM     36  H   LIG d   1     204.226 173.935 197.757  0.00  0.00     0.210 HD
ATOM     37  N   LIG d   1     203.400 170.266 191.707  0.00  0.00    -0.341 NA
ATOM     38  H   LIG d   1     204.214 169.722 191.441  0.00  0.00     0.144 HD
ATOM     39  H   LIG d   1     202.654 170.349 191.030  0.00  0.00     0.144 HD
ATOM      1  CA  SER A 272     219.500 182.733 197.389  1.00 76.05     0.189 C 
ATOM      2  CB  SER A 272     218.127 183.058 197.980  1.00 67.27     0.169 C 
ATOM      3  OG  SER A 272     218.256 183.798 199.184  1.00 67.48    -0.380 OA
ATOM      4  HG  SER A 272     219.171 183.903 199.421  1.00  0.00     0.211 HD
ATOM      5  CA  SER A 273     219.476 179.341 195.712  1.00 95.92     0.189 C 
ATOM      6  CB  SER A 273     220.525 178.254 195.952  1.00101.58     0.169 C 
ATOM      7  OG  SER A 273     220.920 177.661 194.725  1.00 85.34    -0.380 OA
ATOM      8  HG  SER A 273     221.571 176.986 194.874  1.00  0.00     0.211 HD
ATOM      9  CA  VAL A 274     216.112 178.448 197.254  1.00 73.25     0.159 C 
ATOM     10  CB  VAL A 274     215.954 178.192 198.764  1.00 64.82     0.029 C 
ATOM     11  CG2 VAL A 274     217.180 178.674 199.520  1.00 83.80     0.002 C 
ATOM     12  CG1 VAL A 274     215.679 176.724 199.036  1.00 74.90     0.002 C 
ATOM     13  CA  SER A 275     214.008 181.464 196.150  1.00 63.68     0.189 C 
ATOM     14  CB  SER A 275     213.202 181.973 197.344  1.00 53.99     0.169 C 
ATOM     15  OG  SER A 275     214.024 182.170 198.481  1.00 69.59    -0.380 OA
ATOM     16  HG  SER A 275     213.681 181.716 199.242  1.00  0.00     0.211 HD
ATOM     17  CA  TYR A 278     208.988 186.676 192.328  1.00 45.93     0.164 C 
ATOM     18  CB  TYR A 278     208.875 188.200 192.364  1.00 46.39     0.058 C 
ATOM     19  CG  TYR A 278     209.003 188.808 193.742  1.00 49.20    -0.020 A 
ATOM     20  CD2 TYR A 278     209.901 188.285 194.664  1.00 46.83    -0.002 A 
ATOM     21  CE2 TYR A 278     210.025 188.825 195.927  1.00 52.67     0.024 A 
ATOM     22  CZ  TYR A 278     209.248 189.902 196.285  1.00 55.35     0.089 A 
ATOM     23  CE1 TYR A 278     208.348 190.442 195.390  1.00 55.53     0.024 A 
ATOM     24  CD1 TYR A 278     208.229 189.895 194.125  1.00 50.19    -0.002 A 
ATOM     25  OH  TYR A 278     209.372 190.442 197.543  1.00 54.18    -0.359 OA
ATOM     26  HH  TYR A 278     210.228 190.704 197.859  1.00  0.00     0.217 HD
ATOM     27  CA  ASN A 279     205.913 184.718 191.231  1.00 49.32     0.169 C 
ATOM     28  CB  ASN A 279     206.291 183.397 190.562  1.00 41.19     0.119 C 
ATOM     29  CG  ASN A 279     205.151 182.809 189.768  1.00 49.81     0.230 C 
ATOM     30  OD1 ASN A 279     205.181 182.797 188.540  1.00 57.93    -0.273 OA
ATOM     31  ND2 ASN A 279     204.134 182.319 190.464  1.00 54.39    -0.369 N 
ATOM     32 2HD2 ASN A 279     204.109 182.329 191.483  1.00  0.00     0.159 HD
ATOM     33 1HD2 ASN A 279     203.363 181.921 189.927  1.00  0.00     0.159 HD
ATOM     34  CA  PHE A 280     202.335 184.098 192.325  1.00 48.50     0.164 C 
ATOM     35  CB  PHE A 280     201.775 185.418 192.860  1.00 46.97     0.058 C 
ATOM     36  CG  PHE A 280     201.725 185.484 194.352  1.00 48.53    -0.020 A 
ATOM     37  CD2 PHE A 280     202.614 186.285 195.055  1.00 47.66    -0.004 A 
ATOM     38  CE2 PHE A 280     202.572 186.339 196.437  1.00 56.11    -0.000 A 
ATOM     39  CZ  PHE A 280     201.639 185.581 197.130  1.00 54.55    -0.000 A 
ATOM     40  CE1 PHE A 280     200.752 184.778 196.439  1.00 58.17    -0.000 A 
ATOM     41  CD1 PHE A 280     200.800 184.729 195.057  1.00 57.66    -0.004 A 
ATOM     42  CA  ARG A 281     199.282 182.045 191.372  1.00 53.90     0.159 C 
ATOM     43  CB  ARG A 281     199.250 180.605 191.908  1.00 43.93     0.034 C 
ATOM     44  CG  ARG A 281     198.121 180.348 192.900  1.00 59.82     0.027 C 
ATOM     45  CD  ARG A 281     198.639 180.229 194.325  1.00 43.25     0.116 C 
ATOM     46  NE  ARG A 281     198.104 179.037 194.976  1.00 49.00    -0.212 N 
ATOM     47  CZ  ARG A 281     198.840 178.151 195.638  1.00 62.89     0.666 C 
ATOM     48  NH1 ARG A 281     200.154 178.310 195.734  1.00 74.80    -0.235 N 
ATOM     49  NH2 ARG A 281     198.261 177.102 196.199  1.00 61.99    -0.235 N 
ATOM     50 2HH1 ARG A 281     200.600 179.119 195.302  1.00  0.00     0.174 HD
ATOM     51 1HH1 ARG A 281     200.719 177.630 196.242  1.00  0.00     0.174 HD
ATOM     52 2HH2 ARG A 281     197.252 176.979 196.124  1.00  0.00     0.174 HD
ATOM     53 1HH2 ARG A 281     198.826 176.422 196.706  1.00  0.00     0.174 HD
ATOM     54  HE  ARG A 281     197.099 178.874 194.920  1.00  0.00     0.178 HD
ATOM     55  CA  LYS A 299     201.486 180.756 187.756  1.00 49.56     0.159 C 
ATOM     56  CB  LYS A 299     202.397 179.560 188.025  1.00 54.03     0.032 C 
ATOM     57  CG  LYS A 299     201.862 178.269 187.427  1.00 58.52     0.004 C 
ATOM     58  CD  LYS A 299     200.633 177.758 188.149  1.00 56.71     0.032 C 
ATOM     59  CE  LYS A 299     199.516 177.469 187.161  1.00 52.70     0.206 C 
ATOM     60  NZ  LYS A 299     199.843 176.330 186.269  1.00 62.42    -0.064 N 
ATOM     61  HZ3 LYS A 299     199.353 176.406 185.378  1.00  0.00     0.275 HD
ATOM     62  HZ2 LYS A 299     200.803 176.389 185.931  1.00  0.00     0.275 HD
ATOM     63  HZ1 LYS A 299     199.662 175.431 186.715  1.00  0.00     0.275 HD
ATOM     64  CA  ARG A 126     203.924 165.784 202.144  1.00149.40     0.159 C 
ATOM     65  CB  ARG A 126     204.246 164.987 200.881  1.00133.40     0.034 C 
ATOM     66  CG  ARG A 126     204.520 165.832 199.648  1.00130.01     0.027 C 
ATOM     67  CD  ARG A 126     206.016 166.034 199.464  1.00131.26     0.116 C 
ATOM     68  NE  ARG A 126     206.332 166.920 198.347  1.00126.38    -0.212 N 
ATOM     69  CZ  ARG A 126     206.978 168.075 198.476  1.00123.75     0.666 C 
ATOM     70  NH1 ARG A 126     207.378 168.478 199.672  1.00121.38    -0.235 N 
ATOM     71  NH2 ARG A 126     207.225 168.825 197.411  1.00134.78    -0.235 N 
ATOM     72 2HH1 ARG A 126     207.188 167.901 200.491  1.00  0.00     0.174 HD
ATOM     73 1HH1 ARG A 126     207.875 169.364 199.771  1.00  0.00     0.174 HD
ATOM     74 2HH2 ARG A 126     206.917 168.515 196.490  1.00  0.00     0.174 HD
ATOM     75 1HH2 ARG A 126     207.721 169.711 197.510  1.00  0.00     0.174 HD
ATOM     76  HE  ARG A 126     206.040 166.636 197.412  1.00  0.00     0.178 HD
ATOM     77  CA  LEU A 127     201.123 168.268 202.807  1.00153.88     0.160 C 
ATOM     78  CB  LEU A 127     200.758 168.860 204.171  1.00147.20     0.032 C 
ATOM     79  CG  LEU A 127     199.443 168.431 204.825  1.00145.17     0.002 C 
ATOM     80  CD1 LEU A 127     198.263 168.765 203.918  1.00 88.14     0.000 C 
ATOM     81  CD2 LEU A 127     199.461 166.947 205.160  1.00139.20     0.000 C 
ATOM     82  CA  GLU A 156     200.026 171.816 187.502  1.00 66.36     0.160 C 
ATOM     83  CB  GLU A 156     200.353 173.154 188.166  1.00 55.62     0.043 C 
ATOM     84  CG  GLU A 156     199.348 173.714 189.139  1.00 70.57     0.100 C 
ATOM     85  CD  GLU A 156     199.760 173.437 190.579  1.00 81.66     0.185 C 
ATOM     86  OE1 GLU A 156     200.135 174.393 191.293  1.00 65.56    -0.647 OA
ATOM     87  OE2 GLU A 156     199.696 172.263 191.003  1.00 89.99    -0.647 OA
ATOM     88  CA  VAL A 157     203.226 170.537 185.857  1.00 71.99     0.159 C 
ATOM     89  CB  VAL A 157     203.064 169.542 184.685  1.00 75.94     0.029 C 
ATOM     90  CG1 VAL A 157     203.762 168.234 184.996  1.00 76.66     0.002 C 
ATOM     91  CG2 VAL A 157     201.604 169.301 184.377  1.00 67.05     0.002 C 
ATOM     92  CA  ASP A 158     206.666 172.211 185.854  1.00 94.88     0.170 C 
ATOM     93  CB  ASP A 158     206.964 172.988 187.135  1.00104.96     0.129 C 
ATOM     94  CG  ASP A 158     206.373 172.332 188.367  1.00119.19     0.188 C 
ATOM     95  OD1 ASP A 158     205.240 172.693 188.754  1.00111.95    -0.647 OA
ATOM     96  OD2 ASP A 158     207.043 171.449 188.944  1.00131.05    -0.647 OA
ATOM     97  CA  THR A 235     212.747 184.477 187.590  1.00 53.73     0.186 C 
ATOM     98  CB  THR A 235     214.055 184.661 188.369  1.00 53.83     0.140 C 
ATOM     99  CG2 THR A 235     214.371 183.430 189.189  1.00 69.14     0.034 C 
ATOM    100  OG1 THR A 235     215.127 184.901 187.446  1.00 58.73    -0.382 OA
ATOM    101  HG1 THR A 235     215.284 185.836 187.385  1.00  0.00     0.210 HD
ATOM    102  CA  PHE A 301     206.276 185.417 186.926  1.00 52.37     0.164 C 
ATOM    103  CB  PHE A 301     207.456 184.607 186.381  1.00 49.06     0.058 C 
ATOM    104  CG  PHE A 301     208.450 184.185 187.415  1.00 51.77    -0.020 A 
ATOM    105  CD1 PHE A 301     208.370 184.663 188.715  1.00 53.15    -0.004 A 
ATOM    106  CE1 PHE A 301     209.287 184.265 189.675  1.00 57.48    -0.000 A 
ATOM    107  CZ  PHE A 301     210.276 183.361 189.349  1.00 55.39    -0.000 A 
ATOM    108  CE2 PHE A 301     210.352 182.858 188.060  1.00 55.43    -0.000 A 
ATOM    109  CD2 PHE A 301     209.438 183.265 187.104  1.00 51.71    -0.004 A 
ENDMDL
REMARK VINA RESULT:      -6.6      3.475      5.491
REMARK  15 active torsions:
REMARK  status: ('A' for Active; 'I' for Inactive)
REMARK    1  A    between atoms: C_3  and  C_23 
REMARK    2  A    between atoms: C_3  and  O_18 
REMARK    3  A    between atoms: C_8  and  N_30 
REMARK    4  A    between atoms: O_12  and  C_22 
REMARK    5  A    between atoms: O_13  and  C_24 
REMARK    6  A    between atoms: O_14  and  P_34 
REMARK    7  A    between atoms: O_15  and  P_35 
REMARK    8  A    between atoms: O_16  and  P_36 
REMARK    9  A    between atoms: O_17  and  P_36 
REMARK   10  A    between atoms: O_18  and  P_34 
REMARK   11  A    between atoms: O_19  and  P_34 
REMARK   12  A    between atoms: O_19  and  P_35 
REMARK   13  A    between atoms: O_20  and  P_35 
REMARK   14  A    between atoms: O_20  and  P_36 
REMARK   15  A    between atoms: C_21  and  N_39 
REMARK  2 active torsions:
REMARK  status: ('A' for Active; 'I' for Inactive)
REMARK    1  A    between atoms: CA   and  CB  
REMARK    2  A    between atoms: CB   and  OG  
REMARK  2 active torsions:
REMARK  status: ('A' for Active; 'I' for Inactive)
REMARK    3  A    between atoms: CA   and  CB  
REMARK    4  A    between atoms: CB   and  OG  
REMARK  1 active torsions:
REMARK  status: ('A' for Active; 'I' for Inactive)
REMARK    5  A    between atoms: CA   and  CB  
REMARK  2 active torsions:
REMARK  status: ('A' for Active; 'I' for Inactive)
REMARK    6  A    between atoms: CA   and  CB  
REMARK    7  A    between atoms: CB   and  OG  
REMARK  3 active torsions:
REMARK  status: ('A' for Active; 'I' for Inactive)
REMARK    8  A    between atoms: CA   and  CB  
REMARK    9  A    between atoms: CB   and  CG  
REMARK   10  A    between atoms: CZ   and  OH  
REMARK  2 active torsions:
REMARK  status: ('A' for Active; 'I' for Inactive)
REMARK   11  A    between atoms: CA   and  CB  
REMARK   12  A    between atoms: CB   and  CG  
REMARK       I    between atoms: CG   and  ND2 
REMARK  2 active torsions:
REMARK  status: ('A' for Active; 'I' for Inactive)
REMARK   13  A    between atoms: CA   and  CB  
REMARK   14  A    between atoms: CB   and  CG  
REMARK  4 active torsions:
REMARK  status: ('A' for Active; 'I' for Inactive)
REMARK   15  A    between atoms: CA   and  CB  
REMARK   16  A    between atoms: CB   and  CG  
REMARK   17  A    between atoms: CG   and  CD  
REMARK   18  A    between atoms: CD   and  NE  
REMARK       I    between atoms: NE   and  CZ  
REMARK       I    between atoms: CZ   and  NH1 
REMARK       I    between atoms: CZ   and  NH2 
REMARK  5 active torsions:
REMARK  status: ('A' for Active; 'I' for Inactive)
REMARK   19  A    between atoms: CA   and  CB  
REMARK   20  A    between atoms: CB   and  CG  
REMARK   21  A    between atoms: CG   and  CD  
REMARK   22  A    between atoms: CD   and  CE  
REMARK   23  A    between atoms: CE   and  NZ  
REMARK  4 active torsions:
REMARK  status: ('A' for Active; 'I' for Inactive)
REMARK   24  A    between atoms: CA   and  CB  
REMARK   25  A    between atoms: CB   and  CG  
REMARK   26  A    between atoms: CG   and  CD  
REMARK   27  A    between atoms: CD   and  NE  
REMARK       I    between atoms: NE   and  CZ  
REMARK       I    between atoms: CZ   and  NH1 
REMARK       I    between atoms: CZ   and  NH2 
REMARK  2 active torsions:
REMARK  status: ('A' for Active; 'I' for Inactive)
REMARK   28  A    between atoms: CA   and  CB  
REMARK   29  A    between atoms: CB   and  CG  
REMARK  3 active torsions:
REMARK  status: ('A' for Active; 'I' for Inactive)
REMARK   30  A    between atoms: CA   and  CB  
REMARK   31  A    between atoms: CB   and  CG  
REMARK   32  A    between atoms: CG   and  CD  
REMARK  1 active torsions:
REMARK  status: ('A' for Active; 'I' for Inactive)
REMARK   33  A    between atoms: CA   and  CB  
REMARK  2 active torsions:
REMARK  status: ('A' for Active; 'I' for Inactive)
REMARK   34  A    between atoms: CA   and  CB  
REMARK   35  A    between atoms: CB   and  CG  
REMARK  2 active torsions:
REMARK  status: ('A' for Active; 'I' for Inactive)
REMARK   36  A    between atoms: CA   and  CB  
REMARK   37  A    between atoms: CB   and  OG1 
REMARK  2 active torsions:
REMARK  status: ('A' for Active; 'I' for Inactive)
REMARK   38  A    between atoms: CA   and  CB  
REMARK   39  A    between atoms: CB   and  CG  
REMARK viewdock state: V
ATOM      1  C   LIG d   1     205.690 171.701 193.752  0.00  0.00     0.203 A 
ATOM      2  C   LIG d   1     202.058 174.069 194.256  0.00  0.00     0.225 A 
ATOM      3  C   LIG d   1     202.164 171.803 193.764  0.00  0.00     0.147 A 
ATOM      4  N   LIG d   1     203.388 174.299 194.340  0.00  0.00    -0.216 NA
ATOM      5  N   LIG d   1     204.580 171.008 193.594  0.00  0.00    -0.231 NA
ATOM      6  N   LIG d   1     201.420 172.911 193.983  0.00  0.00    -0.219 NA
ATOM      7  C   LIG d   1     204.078 173.172 194.088  0.00  0.00     0.167 A 
ATOM      8  C   LIG d   1     203.564 171.917 193.801  0.00  0.00     0.147 A 
ATOM      9  N   LIG d   1     205.439 173.010 194.067  0.00  0.00    -0.285 N 
ATOM     10  C   LIG d   1     206.411 174.063 194.293  0.00  0.00     0.253 C 
ATOM     11  O   LIG d   1     206.083 174.764 195.511  0.00  0.00    -0.346 OA
ATOM     12  C   LIG d   1     206.173 176.189 195.254  0.00  0.00     0.178 C 
ATOM     13  C   LIG d   1     206.913 176.341 193.930  0.00  0.00     0.178 C 
ATOM     14  C   LIG d   1     206.441 175.114 193.175  0.00  0.00     0.195 C 
ATOM     15  C   LIG d   1     206.845 176.882 196.435  0.00  0.00     0.206 C 
ATOM     16  O   LIG d   1     206.799 178.292 196.223  0.00  0.00    -0.284 OA
ATOM     17  P   LIG d   1     205.445 179.039 196.663  0.00  0.00     0.483 P 
ATOM     18  O   LIG d   1     204.570 178.268 197.590  0.00  0.00    -0.227 OA
ATOM     19  O   LIG d   1     204.795 179.477 195.285  0.00  0.00    -0.186 OA
ATOM     20  P   LIG d   1     203.346 180.099 195.127  0.00  0.00     0.492 P 
ATOM     21  O   LIG d   1     202.966 180.659 193.802  0.00  0.00    -0.227 OA
ATOM     22  O   LIG d   1     203.240 181.095 196.363  0.00  0.00    -0.186 OA
ATOM     23  P   LIG d   1     201.967 181.114 197.303  0.00  0.00     0.481 P 
ATOM     24  O   LIG d   1     200.621 181.170 196.677  0.00  0.00    -0.227 OA
ATOM     25  O   LIG d   1     202.242 182.347 198.280  0.00  0.00    -0.302 OA
ATOM     26  H   LIG d   1     201.415 182.817 198.499  0.00  0.00     0.222 HD
ATOM     27  O   LIG d   1     202.178 179.879 198.301  0.00  0.00    -0.302 OA
ATOM     28  H   LIG d   1     201.345 179.707 198.785  0.00  0.00     0.222 HD
ATOM     29  O   LIG d   1     202.408 178.886 195.610  0.00  0.00    -0.302 OA
ATOM     30  H   LIG d   1     202.512 178.122 195.002  0.00  0.00     0.222 HD
ATOM     31  O   LIG d   1     206.024 180.408 197.258  0.00  0.00    -0.302 OA
ATOM     32  H   LIG d   1     206.020 180.425 198.233  0.00  0.00     0.222 HD
ATOM     33  O   LIG d   1     208.331 176.278 194.101  0.00  0.00    -0.386 OA
ATOM     34  H   LIG d   1     208.620 177.208 194.218  0.00  0.00     0.210 HD
ATOM     35  O   LIG d   1     207.345 174.821 192.109  0.00  0.00    -0.385 OA
ATOM     36  H   LIG d   1     208.091 174.319 192.506  0.00  0.00     0.210 HD
ATOM     37  N   LIG d   1     201.505 170.611 193.492  0.00  0.00    -0.341 NA
ATOM     38  H   LIG d   1     201.714 170.240 192.571  0.00  0.00     0.144 HD
ATOM     39  H   LIG d   1     200.534 170.642 193.773  0.00  0.00     0.144 HD
ATOM      1  CA  SER A 272     219.500 182.733 197.389  1.00 76.05     0.189 C 
ATOM      2  CB  SER A 272     218.127 183.058 197.980  1.00 67.27     0.169 C 
ATOM      3  OG  SER A 272     217.383 183.889 197.104  1.00 67.48    -0.380 OA
ATOM      4  HG  SER A 272     217.129 184.696 197.536  1.00  0.00     0.211 HD
ATOM      5  CA  SER A 273     219.476 179.341 195.712  1.00 95.92     0.189 C 
ATOM      6  CB  SER A 273     220.525 178.254 195.952  1.00101.58     0.169 C 
ATOM      7  OG  SER A 273     221.142 177.878 194.732  1.00 85.34    -0.380 OA
ATOM      8  HG  SER A 273     221.305 178.641 194.190  1.00  0.00     0.211 HD
ATOM      9  CA  VAL A 274     216.112 178.448 197.254  1.00 73.25     0.159 C 
ATOM     10  CB  VAL A 274     215.954 178.192 198.764  1.00 64.82     0.029 C 
ATOM     11  CG2 VAL A 274     217.180 178.675 199.520  1.00 83.80     0.002 C 
ATOM     12  CG1 VAL A 274     215.680 176.724 199.036  1.00 74.90     0.002 C 
ATOM     13  CA  SER A 275     214.008 181.464 196.150  1.00 63.68     0.189 C 
ATOM     14  CB  SER A 275     213.202 181.973 197.344  1.00 53.99     0.169 C 
ATOM     15  OG  SER A 275     213.078 180.982 198.349  1.00 69.59    -0.380 OA
ATOM     16  HG  SER A 275     212.407 180.347 198.132  1.00  0.00     0.211 HD
ATOM     17  CA  TYR A 278     208.988 186.676 192.328  1.00 45.93     0.164 C 
ATOM     18  CB  TYR A 278     208.875 188.200 192.364  1.00 46.39     0.058 C 
ATOM     19  CG  TYR A 278     209.003 188.808 193.742  1.00 49.20    -0.020 A 
ATOM     20  CD2 TYR A 278     209.901 188.284 194.664  1.00 46.83    -0.002 A 
ATOM     21  CE2 TYR A 278     210.026 188.824 195.927  1.00 52.67     0.024 A 
ATOM     22  CZ  TYR A 278     209.250 189.902 196.285  1.00 55.35     0.089 A 
ATOM     23  CE1 TYR A 278     208.350 190.442 195.390  1.00 55.53     0.024 A 
ATOM     24  CD1 TYR A 278     208.230 189.895 194.125  1.00 50.19    -0.002 A 
ATOM     25  OH  TYR A 278     209.374 190.442 197.542  1.00 54.18    -0.359 OA
ATOM     26  HH  TYR A 278     209.039 189.967 198.294  1.00  0.00     0.217 HD
ATOM     27  CA  ASN A 279     205.913 184.718 191.231  1.00 49.32     0.169 C 
ATOM     28  CB  ASN A 279     206.291 183.397 190.562  1.00 41.19     0.119 C 
ATOM     29  CG  ASN A 279     205.156 182.817 189.756  1.00 49.81     0.230 C 
ATOM     30  OD1 ASN A 279     205.217 182.769 188.530  1.00 57.93    -0.273 OA
ATOM     31  ND2 ASN A 279     204.109 182.373 190.437  1.00 54.39    -0.369 N 
ATOM     32 2HD2 ASN A 279     204.058 182.413 191.455  1.00  0.00     0.159 HD
ATOM     33 1HD2 ASN A 279     203.342 181.981 189.892  1.00  0.00     0.159 HD
ATOM     34  CA  PHE A 280     202.335 184.098 192.325  1.00 48.50     0.164 C 
ATOM     35  CB  PHE A 280     201.775 185.418 192.860  1.00 46.97     0.058 C 
ATOM     36  CG  PHE A 280     201.694 185.471 194.351  1.00 48.53    -0.020 A 
ATOM     37  CD2 PHE A 280     200.708 184.770 195.032  1.00 47.66    -0.004 A 
ATOM     38  CE2 PHE A 280     200.629 184.827 196.412  1.00 56.11    -0.000 A 
ATOM     39  CZ  PHE A 280     201.536 185.597 197.125  1.00 54.55    -0.000 A 
ATOM     40  CE1 PHE A 280     202.519 186.301 196.456  1.00 58.17    -0.000 A 
ATOM     41  CD1 PHE A 280     202.593 186.240 195.076  1.00 57.66    -0.004 A 
ATOM     42  CA  ARG A 281     199.282 182.045 191.372  1.00 53.90     0.159 C 
ATOM     43  CB  ARG A 281     199.250 180.605 191.908  1.00 43.93     0.034 C 
ATOM     44  CG  ARG A 281     199.166 180.521 193.428  1.00 59.82     0.027 C 
ATOM     45  CD  ARG A 281     197.791 180.066 193.892  1.00 43.25     0.116 C 
ATOM     46  NE  ARG A 281     197.181 181.059 194.771  1.00 49.00    -0.212 N 
ATOM     47  CZ  ARG A 281     196.559 180.771 195.909  1.00 62.89     0.666 C 
ATOM     48  NH1 ARG A 281     196.451 179.510 196.312  1.00 74.80    -0.235 N 
ATOM     49  NH2 ARG A 281     196.041 181.742 196.641  1.00 61.99    -0.235 N 
ATOM     50 2HH1 ARG A 281     196.851 178.760 195.747  1.00  0.00     0.174 HD
ATOM     51 1HH1 ARG A 281     195.973 179.289 197.186  1.00  0.00     0.174 HD
ATOM     52 2HH2 ARG A 281     196.123 182.710 196.330  1.00  0.00     0.174 HD
ATOM     53 1HH2 ARG A 281     195.563 181.521 197.514  1.00  0.00     0.174 HD
ATOM     54  HE  ARG A 281     197.237 182.039 194.494  1.00  0.00     0.178 HD
ATOM     55  CA  LYS A 299     201.486 180.756 187.756  1.00 49.56     0.159 C 
ATOM     56  CB  LYS A 299     202.397 179.560 188.025  1.00 54.03     0.032 C 
ATOM     57  CG  LYS A 299     201.969 178.314 187.267  1.00 58.52     0.004 C 
ATOM     58  CD  LYS A 299     200.599 177.822 187.684  1.00 56.71     0.032 C 
ATOM     59  CE  LYS A 299     199.828 177.308 186.479  1.00 52.70     0.206 C 
ATOM     60  NZ  LYS A 299     198.937 176.176 186.829  1.00 62.42    -0.064 N 
ATOM     61  HZ3 LYS A 299     199.307 175.292 186.480  1.00  0.00     0.275 HD
ATOM     62  HZ2 LYS A 299     198.965 175.979 187.829  1.00  0.00     0.275 HD
ATOM     63  HZ1 LYS A 299     197.980 176.329 186.509  1.00  0.00     0.275 HD
ATOM     64  CA  ARG A 126     203.924 165.784 202.144  1.00149.40     0.159 C 
ATOM     65  CB  ARG A 126     204.246 164.987 200.881  1.00133.40     0.034 C 
ATOM     66  CG  ARG A 126     204.664 165.828 199.687  1.00130.01     0.027 C 
ATOM     67  CD  ARG A 126     206.174 166.010 199.667  1.00131.26     0.116 C 
ATOM     68  NE  ARG A 126     206.575 167.412 199.744  1.00126.38    -0.212 N 
ATOM     69  CZ  ARG A 126     207.735 167.825 200.243  1.00123.75     0.666 C 
ATOM     70  NH1 ARG A 126     208.608 166.942 200.705  1.00121.38    -0.235 N 
ATOM     71  NH2 ARG A 126     208.024 169.119 200.281  1.00134.78    -0.235 N 
ATOM     72 2HH1 ARG A 126     208.385 165.947 200.676  1.00  0.00     0.174 HD
ATOM     73 1HH1 ARG A 126     209.499 167.259 201.088  1.00  0.00     0.174 HD
ATOM     74 2HH2 ARG A 126     207.352 169.798 199.926  1.00  0.00     0.174 HD
ATOM     75 1HH2 ARG A 126     208.915 169.436 200.664  1.00  0.00     0.174 HD
ATOM     76  HE  ARG A 126     205.925 168.117 199.394  1.00  0.00     0.178 HD
ATOM     77  CA  LEU A 127     201.123 168.268 202.807  1.00153.88     0.160 C 
ATOM     78  CB  LEU A 127     200.758 168.860 204.171  1.00147.20     0.032 C 
ATOM     79  CG  LEU A 127     199.455 168.412 204.837  1.00145.17     0.002 C 
ATOM     80  CD1 LEU A 127     198.261 168.745 203.948  1.00 88.14     0.000 C 
ATOM     81  CD2 LEU A 127     199.491 166.924 205.155  1.00139.20     0.000 C 
ATOM     82  CA  GLU A 156     200.026 171.816 187.502  1.00 66.36     0.160 C 
ATOM     83  CB  GLU A 156     200.353 173.154 188.166  1.00 55.62     0.043 C 
ATOM     84  CG  GLU A 156     199.738 173.434 189.513  1.00 70.57     0.100 C 
ATOM     85  CD  GLU A 156     200.313 172.515 190.584  1.00 81.66     0.185 C 
ATOM     86  OE1 GLU A 156     201.553 172.473 190.738  1.00 65.56    -0.647 OA
ATOM     87  OE2 GLU A 156     199.523 171.845 191.282  1.00 89.99    -0.647 OA
ATOM     88  CA  VAL A 157     203.226 170.537 185.857  1.00 71.99     0.159 C 
ATOM     89  CB  VAL A 157     203.064 169.542 184.685  1.00 75.94     0.029 C 
ATOM     90  CG1 VAL A 157     203.766 168.236 184.994  1.00 76.66     0.002 C 
ATOM     91  CG2 VAL A 157     201.604 169.297 184.380  1.00 67.05     0.002 C 
ATOM     92  CA  ASP A 158     206.666 172.211 185.854  1.00 94.88     0.170 C 
ATOM     93  CB  ASP A 158     206.964 172.988 187.135  1.00104.96     0.129 C 
ATOM     94  CG  ASP A 158     206.381 172.327 188.368  1.00119.19     0.188 C 
ATOM     95  OD1 ASP A 158     205.315 172.776 188.843  1.00111.95    -0.647 OA
ATOM     96  OD2 ASP A 158     206.990 171.352 188.858  1.00131.05    -0.647 OA
ATOM     97  CA  THR A 235     212.747 184.477 187.590  1.00 53.73     0.186 C 
ATOM     98  CB  THR A 235     214.055 184.661 188.369  1.00 53.83     0.140 C 
ATOM     99  CG2 THR A 235     213.986 185.884 189.255  1.00 69.14     0.034 C 
ATOM    100  OG1 THR A 235     214.290 183.502 189.181  1.00 58.73    -0.382 OA
ATOM    101  HG1 THR A 235     215.002 183.681 189.784  1.00  0.00     0.210 HD
ATOM    102  CA  PHE A 301     206.276 185.417 186.926  1.00 52.37     0.164 C 
ATOM    103  CB  PHE A 301     207.456 184.607 186.381  1.00 49.06     0.058 C 
ATOM    104  CG  PHE A 301     208.566 185.432 185.813  1.00 51.77    -0.020 A 
ATOM    105  CD1 PHE A 301     209.001 186.580 186.460  1.00 53.15    -0.004 A 
ATOM    106  CE1 PHE A 301     210.036 187.339 185.937  1.00 57.48    -0.000 A 
ATOM    107  CZ  PHE A 301     210.664 186.940 184.776  1.00 55.39    -0.000 A 
ATOM    108  CE2 PHE A 301     210.254 185.783 184.134  1.00 55.43    -0.000 A 
ATOM    109  CD2 PHE A 301     209.216 185.032 184.657  1.00 51.71    -0.004 A 
ENDMDL
REMARK VINA RESULT:      -6.3      3.226      5.359
REMARK  15 active torsions:
REMARK  status: ('A' for Active; 'I' for Inactive)
REMARK    1  A    between atoms: C_3  and  C_23 
REMARK    2  A    between atoms: C_3  and  O_18 
REMARK    3  A    between atoms: C_8  and  N_30 
REMARK    4  A    between atoms: O_12  and  C_22 
REMARK    5  A    between atoms: O_13  and  C_24 
REMARK    6  A    between atoms: O_14  and  P_34 
REMARK    7  A    between atoms: O_15  and  P_35 
REMARK    8  A    between atoms: O_16  and  P_36 
REMARK    9  A    between atoms: O_17  and  P_36 
REMARK   10  A    between atoms: O_18  and  P_34 
REMARK   11  A    between atoms: O_19  and  P_34 
REMARK   12  A    between atoms: O_19  and  P_35 
REMARK   13  A    between atoms: O_20  and  P_35 
REMARK   14  A    between atoms: O_20  and  P_36 
REMARK   15  A    between atoms: C_21  and  N_39 
REMARK  2 active torsions:
REMARK  status: ('A' for Active; 'I' for Inactive)
REMARK    1  A    between atoms: CA   and  CB  
REMARK    2  A    between atoms: CB   and  OG  
REMARK  2 active torsions:
REMARK  status: ('A' for Active; 'I' for Inactive)
REMARK    3  A    between atoms: CA   and  CB  
REMARK    4  A    between atoms: CB   and  OG  
REMARK  1 active torsions:
REMARK  status: ('A' for Active; 'I' for Inactive)
REMARK    5  A    between atoms: CA   and  CB  
REMARK  2 active torsions:
REMARK  status: ('A' for Active; 'I' for Inactive)
REMARK    6  A    between atoms: CA   and  CB  
REMARK    7  A    between atoms: CB   and  OG  
REMARK  3 active torsions:
REMARK  status: ('A' for Active; 'I' for Inactive)
REMARK    8  A    between atoms: CA   and  CB  
REMARK    9  A    between atoms: CB   and  CG  
REMARK   10  A    between atoms: CZ   and  OH  
REMARK  2 active torsions:
REMARK  status: ('A' for Active; 'I' for Inactive)
REMARK   11  A    between atoms: CA   and  CB  
REMARK   12  A    between atoms: CB   and  CG  
REMARK       I    between atoms: CG   and  ND2 
REMARK  2 active torsions:
REMARK  status: ('A' for Active; 'I' for Inactive)
REMARK   13  A    between atoms: CA   and  CB  
REMARK   14  A    between atoms: CB   and  CG  
REMARK  4 active torsions:
REMARK  status: ('A' for Active; 'I' for Inactive)
REMARK   15  A    between atoms: CA   and  CB  
REMARK   16  A    between atoms: CB   and  CG  
REMARK   17  A    between atoms: CG   and  CD  
REMARK   18  A    between atoms: CD   and  NE  
REMARK       I    between atoms: NE   and  CZ  
REMARK       I    between atoms: CZ   and  NH1 
REMARK       I    between atoms: CZ   and  NH2 
REMARK  5 active torsions:
REMARK  status: ('A' for Active; 'I' for Inactive)
REMARK   19  A    between atoms: CA   and  CB  
REMARK   20  A    between atoms: CB   and  CG  
REMARK   21  A    between atoms: CG   and  CD  
REMARK   22  A    between atoms: CD   and  CE  
REMARK   23  A    between atoms: CE   and  NZ  
REMARK  4 active torsions:
REMARK  status: ('A' for Active; 'I' for Inactive)
REMARK   24  A    between atoms: CA   and  CB  
REMARK   25  A    between atoms: CB   and  CG  
REMARK   26  A    between atoms: CG   and  CD  
REMARK   27  A    between atoms: CD   and  NE  
REMARK       I    between atoms: NE   and  CZ  
REMARK       I    between atoms: CZ   and  NH1 
REMARK       I    between atoms: CZ   and  NH2 
REMARK  2 active torsions:
REMARK  status: ('A' for Active; 'I' for Inactive)
REMARK   28  A    between atoms: CA   and  CB  
REMARK   29  A    between atoms: CB   and  CG  
REMARK  3 active torsions:
REMARK  status: ('A' for Active; 'I' for Inactive)
REMARK   30  A    between atoms: CA   and  CB  
REMARK   31  A    between atoms: CB   and  CG  
REMARK   32  A    between atoms: CG   and  CD  
REMARK  1 active torsions:
REMARK  status: ('A' for Active; 'I' for Inactive)
REMARK   33  A    between atoms: CA   and  CB  
REMARK  2 active torsions:
REMARK  status: ('A' for Active; 'I' for Inactive)
REMARK   34  A    between atoms: CA   and  CB  
REMARK   35  A    between atoms: CB   and  CG  
REMARK  2 active torsions:
REMARK  status: ('A' for Active; 'I' for Inactive)
REMARK   36  A    between atoms: CA   and  CB  
REMARK   37  A    between atoms: CB   and  OG1 
REMARK  2 active torsions:
REMARK  status: ('A' for Active; 'I' for Inactive)
REMARK   38  A    between atoms: CA   and  CB  
REMARK   39  A    between atoms: CB   and  CG  
REMARK viewdock state: V
ATOM      1  C   LIG d   1     207.138 176.857 193.739  0.00  0.00     0.203 A 
ATOM      2  C   LIG d   1     208.983 173.682 191.380  0.00  0.00     0.225 A 
ATOM      3  C   LIG d   1     206.764 173.781 192.055  0.00  0.00     0.147 A 
ATOM      4  N   LIG d   1     209.388 174.856 191.916  0.00  0.00    -0.216 NA
ATOM      5  N   LIG d   1     206.306 175.888 193.413  0.00  0.00    -0.231 NA
ATOM      6  N   LIG d   1     207.757 173.119 191.417  0.00  0.00    -0.219 NA
ATOM      7  C   LIG d   1     208.370 175.456 192.559  0.00  0.00     0.167 A 
ATOM      8  C   LIG d   1     207.065 175.005 192.674  0.00  0.00     0.147 A 
ATOM      9  N   LIG d   1     208.393 176.649 193.233  0.00  0.00    -0.285 N 
ATOM     10  C   LIG d   1     209.563 177.492 193.405  0.00  0.00     0.253 C 
ATOM     11  O   LIG d   1     209.956 178.030 192.125  0.00  0.00    -0.346 OA
ATOM     12  C   LIG d   1     211.393 177.881 191.991  0.00  0.00     0.178 C 
ATOM     13  C   LIG d   1     211.923 177.552 193.382  0.00  0.00     0.178 C 
ATOM     14  C   LIG d   1     210.780 176.739 193.958  0.00  0.00     0.195 C 
ATOM     15  C   LIG d   1     211.985 179.143 191.374  0.00  0.00     0.206 C 
ATOM     16  O   LIG d   1     212.081 178.960 189.963  0.00  0.00    -0.284 OA
ATOM     17  P   LIG d   1     213.334 178.103 189.435  0.00  0.00     0.483 P 
ATOM     18  O   LIG d   1     213.886 178.534 188.120  0.00  0.00    -0.227 OA
ATOM     19  O   LIG d   1     212.828 176.603 189.526  0.00  0.00    -0.186 OA
ATOM     20  P   LIG d   1     212.160 175.801 188.334  0.00  0.00     0.492 P 
ATOM     21  O   LIG d   1     213.052 175.217 187.298  0.00  0.00    -0.227 OA
ATOM     22  O   LIG d   1     211.036 176.797 187.808  0.00  0.00    -0.186 OA
ATOM     23  P   LIG d   1     210.876 177.125 186.269  0.00  0.00     0.481 P 
ATOM     24  O   LIG d   1     211.769 178.145 185.662  0.00  0.00    -0.227 OA
ATOM     25  O   LIG d   1     209.330 177.500 186.125  0.00  0.00    -0.302 OA
ATOM     26  H   LIG d   1     208.786 177.015 186.775  0.00  0.00     0.222 HD
ATOM     27  O   LIG d   1     210.915 175.699 185.541  0.00  0.00    -0.302 OA
ATOM     28  H   LIG d   1     211.312 175.798 184.653  0.00  0.00     0.222 HD
ATOM     29  O   LIG d   1     211.279 174.709 189.120  0.00  0.00    -0.302 OA
ATOM     30  H   LIG d   1     211.799 174.335 189.864  0.00  0.00     0.222 HD
ATOM     31  O   LIG d   1     214.345 178.236 190.671  0.00  0.00    -0.302 OA
ATOM     32  H   LIG d   1     213.917 178.603 191.466  0.00  0.00     0.222 HD
ATOM     33  O   LIG d   1     212.114 178.728 194.172  0.00  0.00    -0.386 OA
ATOM     34  H   LIG d   1     211.557 179.417 193.751  0.00  0.00     0.210 HD
ATOM     35  O   LIG d   1     210.868 176.718 195.384  0.00  0.00    -0.385 OA
ATOM     36  H   LIG d   1     211.603 176.107 195.609  0.00  0.00     0.210 HD
ATOM     37  N   LIG d   1     205.501 173.204 192.084  0.00  0.00    -0.341 NA
ATOM     38  H   LIG d   1     205.246 172.846 192.998  0.00  0.00     0.144 HD
ATOM     39  H   LIG d   1     205.341 172.603 191.287  0.00  0.00     0.144 HD
ATOM      1  CA  SER A 272     219.500 182.733 197.389  1.00 76.05     0.189 C 
ATOM      2  CB  SER A 272     218.127 183.058 197.980  1.00 67.27     0.169 C 
ATOM      3  OG  SER A 272     218.255 183.843 199.155  1.00 67.48    -0.380 OA
ATOM      4  HG  SER A 272     219.141 183.802 199.495  1.00  0.00     0.211 HD
ATOM      5  CA  SER A 273     219.476 179.341 195.712  1.00 95.92     0.189 C 
ATOM      6  CB  SER A 273     220.525 178.254 195.952  1.00101.58     0.169 C 
ATOM      7  OG  SER A 273     221.149 177.885 194.733  1.00 85.34    -0.380 OA
ATOM      8  HG  SER A 273     220.900 178.481 194.036  1.00  0.00     0.211 HD
ATOM      9  CA  VAL A 274     216.112 178.448 197.254  1.00 73.25     0.159 C 
ATOM     10  CB  VAL A 274     215.954 178.192 198.764  1.00 64.82     0.029 C 
ATOM     11  CG2 VAL A 274     217.179 178.675 199.520  1.00 83.80     0.002 C 
ATOM     12  CG1 VAL A 274     215.681 176.723 199.036  1.00 74.90     0.002 C 
ATOM     13  CA  SER A 275     214.008 181.464 196.150  1.00 63.68     0.189 C 
ATOM     14  CB  SER A 275     213.202 181.973 197.344  1.00 53.99     0.169 C 
ATOM     15  OG  SER A 275     213.063 180.977 198.342  1.00 69.59    -0.380 OA
ATOM     16  HG  SER A 275     212.159 180.705 198.440  1.00  0.00     0.211 HD
ATOM     17  CA  TYR A 278     208.988 186.676 192.328  1.00 45.93     0.164 C 
ATOM     18  CB  TYR A 278     208.875 188.200 192.364  1.00 46.39     0.058 C 
ATOM     19  CG  TYR A 278     209.004 188.808 193.742  1.00 49.20    -0.020 A 
ATOM     20  CD2 TYR A 278     209.903 188.285 194.663  1.00 46.83    -0.002 A 
ATOM     21  CE2 TYR A 278     210.028 188.825 195.926  1.00 52.67     0.024 A 
ATOM     22  CZ  TYR A 278     209.250 189.902 196.285  1.00 55.35     0.089 A 
ATOM     23  CE1 TYR A 278     208.349 190.441 195.391  1.00 55.53     0.024 A 
ATOM     24  CD1 TYR A 278     208.229 189.894 194.126  1.00 50.19    -0.002 A 
ATOM     25  OH  TYR A 278     209.375 190.442 197.542  1.00 54.18    -0.359 OA
ATOM     26  HH  TYR A 278     209.639 191.350 197.640  1.00  0.00     0.217 HD
ATOM     27  CA  ASN A 279     205.913 184.718 191.231  1.00 49.32     0.169 C 
ATOM     28  CB  ASN A 279     206.291 183.397 190.562  1.00 41.19     0.119 C 
ATOM     29  CG  ASN A 279     205.164 182.830 189.735  1.00 49.81     0.230 C 
ATOM     30  OD1 ASN A 279     205.239 182.798 188.509  1.00 57.93    -0.273 OA
ATOM     31  ND2 ASN A 279     204.108 182.380 190.399  1.00 54.39    -0.369 N 
ATOM     32 2HD2 ASN A 279     204.046 182.407 191.417  1.00  0.00     0.159 HD
ATOM     33 1HD2 ASN A 279     203.347 181.996 189.840  1.00  0.00     0.159 HD
ATOM     34  CA  PHE A 280     202.335 184.098 192.325  1.00 48.50     0.164 C 
ATOM     35  CB  PHE A 280     201.775 185.418 192.860  1.00 46.97     0.058 C 
ATOM     36  CG  PHE A 280     201.804 185.518 194.351  1.00 48.53    -0.020 A 
ATOM     37  CD2 PHE A 280     202.665 186.403 194.984  1.00 47.66    -0.004 A 
ATOM     38  CE2 PHE A 280     202.697 186.489 196.364  1.00 56.11    -0.000 A 
ATOM     39  CZ  PHE A 280     201.867 185.679 197.126  1.00 54.55    -0.000 A 
ATOM     40  CE1 PHE A 280     201.009 184.793 196.505  1.00 58.17    -0.000 A 
ATOM     41  CD1 PHE A 280     200.982 184.712 195.124  1.00 57.66    -0.004 A 
ATOM     42  CA  ARG A 281     199.282 182.045 191.372  1.00 53.90     0.159 C 
ATOM     43  CB  ARG A 281     199.250 180.605 191.908  1.00 43.93     0.034 C 
ATOM     44  CG  ARG A 281     198.074 180.326 192.837  1.00 59.82     0.027 C 
ATOM     45  CD  ARG A 281     198.502 180.295 194.295  1.00 43.25     0.116 C 
ATOM     46  NE  ARG A 281     197.926 181.416 195.032  1.00 49.00    -0.212 N 
ATOM     47  CZ  ARG A 281     198.456 181.943 196.130  1.00 62.89     0.666 C 
ATOM     48  NH1 ARG A 281     199.580 181.449 196.634  1.00 74.80    -0.235 N 
ATOM     49  NH2 ARG A 281     197.860 182.962 196.725  1.00 61.99    -0.235 N 
ATOM     50 2HH1 ARG A 281     200.041 180.662 196.175  1.00  0.00     0.174 HD
ATOM     51 1HH1 ARG A 281     199.988 181.853 197.477  1.00  0.00     0.174 HD
ATOM     52 2HH2 ARG A 281     196.996 183.341 196.338  1.00  0.00     0.174 HD
ATOM     53 1HH2 ARG A 281     198.268 183.366 197.568  1.00  0.00     0.174 HD
ATOM     54  HE  ARG A 281     197.058 181.821 194.681  1.00  0.00     0.178 HD
ATOM     55  CA  LYS A 299     201.486 180.756 187.756  1.00 49.56     0.159 C 
ATOM     56  CB  LYS A 299     202.397 179.560 188.025  1.00 54.03     0.032 C 
ATOM     57  CG  LYS A 299     201.622 178.291 188.342  1.00 58.52     0.004 C 
ATOM     58  CD  LYS A 299     201.047 177.636 187.104  1.00 56.71     0.032 C 
ATOM     59  CE  LYS A 299     199.569 177.338 187.296  1.00 52.70     0.206 C 
ATOM     60  NZ  LYS A 299     199.065 176.360 186.303  1.00 62.42    -0.064 N 
ATOM     61  HZ3 LYS A 299     199.452 175.431 186.469  1.00  0.00     0.275 HD
ATOM     62  HZ2 LYS A 299     198.078 176.154 186.456  1.00  0.00     0.275 HD
ATOM     63  HZ1 LYS A 299     199.235 176.665 185.344  1.00  0.00     0.275 HD
ATOM     64  CA  ARG A 126     203.924 165.784 202.144  1.00149.40     0.159 C 
ATOM     65  CB  ARG A 126     204.246 164.987 200.881  1.00133.40     0.034 C 
ATOM     66  CG  ARG A 126     205.475 165.462 200.125  1.00130.01     0.027 C 
ATOM     67  CD  ARG A 126     205.183 166.767 199.401  1.00131.26     0.116 C 
ATOM     68  NE  ARG A 126     206.223 167.772 199.607  1.00126.38    -0.212 N 
ATOM     69  CZ  ARG A 126     207.470 167.650 199.163  1.00123.75     0.666 C 
ATOM     70  NH1 ARG A 126     207.829 166.570 198.486  1.00121.38    -0.235 N 
ATOM     71  NH2 ARG A 126     208.358 168.607 199.394  1.00134.78    -0.235 N 
ATOM     72 2HH1 ARG A 126     207.145 165.833 198.308  1.00  0.00     0.174 HD
ATOM     73 1HH1 ARG A 126     208.785 166.477 198.144  1.00  0.00     0.174 HD
ATOM     74 2HH2 ARG A 126     208.083 169.439 199.915  1.00  0.00     0.174 HD
ATOM     75 1HH2 ARG A 126     209.315 168.514 199.053  1.00  0.00     0.174 HD
ATOM     76  HE  ARG A 126     205.978 168.617 200.123  1.00  0.00     0.178 HD
ATOM     77  CA  LEU A 127     201.123 168.268 202.807  1.00153.88     0.160 C 
ATOM     78  CB  LEU A 127     200.758 168.860 204.171  1.00147.20     0.032 C 
ATOM     79  CG  LEU A 127     199.444 168.430 204.826  1.00145.17     0.002 C 
ATOM     80  CD1 LEU A 127     198.261 168.791 203.933  1.00 88.14     0.000 C 
ATOM     81  CD2 LEU A 127     199.452 166.939 205.133  1.00139.20     0.000 C 
ATOM     82  CA  GLU A 156     200.026 171.816 187.502  1.00 66.36     0.160 C 
ATOM     83  CB  GLU A 156     200.353 173.154 188.166  1.00 55.62     0.043 C 
ATOM     84  CG  GLU A 156     199.551 173.545 189.381  1.00 70.57     0.100 C 
ATOM     85  CD  GLU A 156     200.015 172.784 190.617  1.00 81.66     0.185 C 
ATOM     86  OE1 GLU A 156     201.178 172.970 191.036  1.00 65.56    -0.647 OA
ATOM     87  OE2 GLU A 156     199.211 172.009 191.177  1.00 89.99    -0.647 OA
ATOM     88  CA  VAL A 157     203.226 170.537 185.857  1.00 71.99     0.159 C 
ATOM     89  CB  VAL A 157     203.064 169.542 184.685  1.00 75.94     0.029 C 
ATOM     90  CG1 VAL A 157     203.767 168.236 184.993  1.00 76.66     0.002 C 
ATOM     91  CG2 VAL A 157     201.604 169.296 184.380  1.00 67.05     0.002 C 
ATOM     92  CA  ASP A 158     206.666 172.211 185.854  1.00 94.88     0.170 C 
ATOM     93  CB  ASP A 158     206.964 172.988 187.135  1.00104.96     0.129 C 
ATOM     94  CG  ASP A 158     206.402 172.314 188.371  1.00119.19     0.188 C 
ATOM     95  OD1 ASP A 158     206.970 171.288 188.806  1.00111.95    -0.647 OA
ATOM     96  OD2 ASP A 158     205.395 172.818 188.911  1.00131.05    -0.647 OA
ATOM     97  CA  THR A 235     212.747 184.477 187.590  1.00 53.73     0.186 C 
ATOM     98  CB  THR A 235     214.055 184.661 188.369  1.00 53.83     0.140 C 
ATOM     99  CG2 THR A 235     214.363 183.437 189.201  1.00 69.14     0.034 C 
ATOM    100  OG1 THR A 235     215.129 184.886 187.445  1.00 58.73    -0.382 OA
ATOM    101  HG1 THR A 235     214.832 184.688 186.565  1.00  0.00     0.210 HD
ATOM    102  CA  PHE A 301     206.276 185.417 186.926  1.00 52.37     0.164 C 
ATOM    103  CB  PHE A 301     207.456 184.607 186.381  1.00 49.06     0.058 C 
ATOM    104  CG  PHE A 301     208.591 185.432 185.865  1.00 51.77    -0.020 A 
ATOM    105  CD1 PHE A 301     208.922 186.639 186.466  1.00 53.15    -0.004 A 
ATOM    106  CE1 PHE A 301     209.979 187.399 185.992  1.00 57.48    -0.000 A 
ATOM    107  CZ  PHE A 301     210.733 186.945 184.931  1.00 55.39    -0.000 A 
ATOM    108  CE2 PHE A 301     210.427 185.731 184.338  1.00 55.43    -0.000 A 
ATOM    109  CD2 PHE A 301     209.365 184.979 184.810  1.00 51.71    -0.004 A 
ENDMDL
REMARK VINA RESULT:      -6.2      3.291      5.325
REMARK  15 active torsions:
REMARK  status: ('A' for Active; 'I' for Inactive)
REMARK    1  A    between atoms: C_3  and  C_23 
REMARK    2  A    between atoms: C_3  and  O_18 
REMARK    3  A    between atoms: C_8  and  N_30 
REMARK    4  A    between atoms: O_12  and  C_22 
REMARK    5  A    between atoms: O_13  and  C_24 
REMARK    6  A    between atoms: O_14  and  P_34 
REMARK    7  A    between atoms: O_15  and  P_35 
REMARK    8  A    between atoms: O_16  and  P_36 
REMARK    9  A    between atoms: O_17  and  P_36 
REMARK   10  A    between atoms: O_18  and  P_34 
REMARK   11  A    between atoms: O_19  and  P_34 
REMARK   12  A    between atoms: O_19  and  P_35 
REMARK   13  A    between atoms: O_20  and  P_35 
REMARK   14  A    between atoms: O_20  and  P_36 
REMARK   15  A    between atoms: C_21  and  N_39 
REMARK  2 active torsions:
REMARK  status: ('A' for Active; 'I' for Inactive)
REMARK    1  A    between atoms: CA   and  CB  
REMARK    2  A    between atoms: CB   and  OG  
REMARK  2 active torsions:
REMARK  status: ('A' for Active; 'I' for Inactive)
REMARK    3  A    between atoms: CA   and  CB  
REMARK    4  A    between atoms: CB   and  OG  
REMARK  1 active torsions:
REMARK  status: ('A' for Active; 'I' for Inactive)
REMARK    5  A    between atoms: CA   and  CB  
REMARK  2 active torsions:
REMARK  status: ('A' for Active; 'I' for Inactive)
REMARK    6  A    between atoms: CA   and  CB  
REMARK    7  A    between atoms: CB   and  OG  
REMARK  3 active torsions:
REMARK  status: ('A' for Active; 'I' for Inactive)
REMARK    8  A    between atoms: CA   and  CB  
REMARK    9  A    between atoms: CB   and  CG  
REMARK   10  A    between atoms: CZ   and  OH  
REMARK  2 active torsions:
REMARK  status: ('A' for Active; 'I' for Inactive)
REMARK   11  A    between atoms: CA   and  CB  
REMARK   12  A    between atoms: CB   and  CG  
REMARK       I    between atoms: CG   and  ND2 
REMARK  2 active torsions:
REMARK  status: ('A' for Active; 'I' for Inactive)
REMARK   13  A    between atoms: CA   and  CB  
REMARK   14  A    between atoms: CB   and  CG  
REMARK  4 active torsions:
REMARK  status: ('A' for Active; 'I' for Inactive)
REMARK   15  A    between atoms: CA   and  CB  
REMARK   16  A    between atoms: CB   and  CG  
REMARK   17  A    between atoms: CG   and  CD  
REMARK   18  A    between atoms: CD   and  NE  
REMARK       I    between atoms: NE   and  CZ  
REMARK       I    between atoms: CZ   and  NH1 
REMARK       I    between atoms: CZ   and  NH2 
REMARK  5 active torsions:
REMARK  status: ('A' for Active; 'I' for Inactive)
REMARK   19  A    between atoms: CA   and  CB  
REMARK   20  A    between atoms: CB   and  CG  
REMARK   21  A    between atoms: CG   and  CD  
REMARK   22  A    between atoms: CD   and  CE  
REMARK   23  A    between atoms: CE   and  NZ  
REMARK  4 active torsions:
REMARK  status: ('A' for Active; 'I' for Inactive)
REMARK   24  A    between atoms: CA   and  CB  
REMARK   25  A    between atoms: CB   and  CG  
REMARK   26  A    between atoms: CG   and  CD  
REMARK   27  A    between atoms: CD   and  NE  
REMARK       I    between atoms: NE   and  CZ  
REMARK       I    between atoms: CZ   and  NH1 
REMARK       I    between atoms: CZ   and  NH2 
REMARK  2 active torsions:
REMARK  status: ('A' for Active; 'I' for Inactive)
REMARK   28  A    between atoms: CA   and  CB  
REMARK   29  A    between atoms: CB   and  CG  
REMARK  3 active torsions:
REMARK  status: ('A' for Active; 'I' for Inactive)
REMARK   30  A    between atoms: CA   and  CB  
REMARK   31  A    between atoms: CB   and  CG  
REMARK   32  A    between atoms: CG   and  CD  
REMARK  1 active torsions:
REMARK  status: ('A' for Active; 'I' for Inactive)
REMARK   33  A    between atoms: CA   and  CB  
REMARK  2 active torsions:
REMARK  status: ('A' for Active; 'I' for Inactive)
REMARK   34  A    between atoms: CA   and  CB  
REMARK   35  A    between atoms: CB   and  CG  
REMARK  2 active torsions:
REMARK  status: ('A' for Active; 'I' for Inactive)
REMARK   36  A    between atoms: CA   and  CB  
REMARK   37  A    between atoms: CB   and  OG1 
REMARK  2 active torsions:
REMARK  status: ('A' for Active; 'I' for Inactive)
REMARK   38  A    between atoms: CA   and  CB  
REMARK   39  A    between atoms: CB   and  CG  
REMARK viewdock state: V
ATOM      1  C   LIG d   1     207.620 179.148 195.910  0.00  0.00     0.203 A 
ATOM      2  C   LIG d   1     209.231 182.861 194.274  0.00  0.00     0.225 A 
ATOM      3  C   LIG d   1     207.168 182.594 195.306  0.00  0.00     0.147 A 
ATOM      4  N   LIG d   1     209.665 181.587 194.405  0.00  0.00    -0.216 NA
ATOM      5  N   LIG d   1     206.810 180.180 196.040  0.00  0.00    -0.231 NA
ATOM      6  N   LIG d   1     208.059 183.395 194.676  0.00  0.00    -0.219 NA
ATOM      7  C   LIG d   1     208.732 180.831 195.012  0.00  0.00     0.167 A 
ATOM      8  C   LIG d   1     207.495 181.239 195.482  0.00  0.00     0.147 A 
ATOM      9  N   LIG d   1     208.800 179.494 195.308  0.00  0.00    -0.285 N 
ATOM     10  C   LIG d   1     209.914 178.620 194.986  0.00  0.00     0.253 C 
ATOM     11  O   LIG d   1     209.569 177.808 193.845  0.00  0.00    -0.346 OA
ATOM     12  C   LIG d   1     209.952 176.438 194.129  0.00  0.00     0.178 C 
ATOM     13  C   LIG d   1     210.868 176.491 195.347  0.00  0.00     0.178 C 
ATOM     14  C   LIG d   1     210.277 177.653 196.121  0.00  0.00     0.195 C 
ATOM     15  C   LIG d   1     210.586 175.813 192.891  0.00  0.00     0.206 C 
ATOM     16  O   LIG d   1     211.008 176.859 192.018  0.00  0.00    -0.284 OA
ATOM     17  P   LIG d   1     212.589 176.976 191.752  0.00  0.00     0.483 P 
ATOM     18  O   LIG d   1     213.258 178.129 192.415  0.00  0.00    -0.227 OA
ATOM     19  O   LIG d   1     212.709 176.908 190.172  0.00  0.00    -0.186 OA
ATOM     20  P   LIG d   1     212.409 178.115 189.190  0.00  0.00     0.492 P 
ATOM     21  O   LIG d   1     211.044 178.704 189.204  0.00  0.00    -0.227 OA
ATOM     22  O   LIG d   1     212.925 177.579 187.784  0.00  0.00    -0.186 OA
ATOM     23  P   LIG d   1     212.569 178.323 186.434  0.00  0.00     0.481 P 
ATOM     24  O   LIG d   1     211.440 177.811 185.615  0.00  0.00    -0.227 OA
ATOM     25  O   LIG d   1     213.952 178.332 185.635  0.00  0.00    -0.302 OA
ATOM     26  H   LIG d   1     214.602 177.729 186.045  0.00  0.00     0.222 HD
ATOM     27  O   LIG d   1     212.439 179.867 186.840  0.00  0.00    -0.302 OA
ATOM     28  H   LIG d   1     213.009 180.406 186.256  0.00  0.00     0.222 HD
ATOM     29  O   LIG d   1     213.568 179.159 189.581  0.00  0.00    -0.302 OA
ATOM     30  H   LIG d   1     213.226 180.077 189.515  0.00  0.00     0.222 HD
ATOM     31  O   LIG d   1     213.093 175.533 192.230  0.00  0.00    -0.302 OA
ATOM     32  H   LIG d   1     213.416 174.985 191.491  0.00  0.00     0.222 HD
ATOM     33  O   LIG d   1     212.217 176.797 194.986  0.00  0.00    -0.386 OA
ATOM     34  H   LIG d   1     212.221 177.757 194.786  0.00  0.00     0.210 HD
ATOM     35  O   LIG d   1     211.238 178.159 197.048  0.00  0.00    -0.385 OA
ATOM     36  H   LIG d   1     211.945 177.480 197.116  0.00  0.00     0.210 HD
ATOM     37  N   LIG d   1     205.967 183.148 195.726  0.00  0.00    -0.341 NA
ATOM     38  H   LIG d   1     205.795 184.070 195.339  0.00  0.00     0.144 HD
ATOM     39  H   LIG d   1     205.819 183.025 196.719  0.00  0.00     0.144 HD
ATOM      1  CA  SER A 272     219.500 182.733 197.389  1.00 76.05     0.189 C 
ATOM      2  CB  SER A 272     218.127 183.058 197.980  1.00 67.27     0.169 C 
ATOM      3  OG  SER A 272     218.255 183.832 199.163  1.00 67.48    -0.380 OA
ATOM      4  HG  SER A 272     219.139 183.779 199.508  1.00  0.00     0.211 HD
ATOM      5  CA  SER A 273     219.476 179.341 195.712  1.00 95.92     0.189 C 
ATOM      6  CB  SER A 273     220.525 178.254 195.952  1.00101.58     0.169 C 
ATOM      7  OG  SER A 273     221.162 177.898 194.736  1.00 85.34    -0.380 OA
ATOM      8  HG  SER A 273     222.106 177.965 194.821  1.00  0.00     0.211 HD
ATOM      9  CA  VAL A 274     216.112 178.448 197.254  1.00 73.25     0.159 C 
ATOM     10  CB  VAL A 274     215.954 178.192 198.764  1.00 64.82     0.029 C 
ATOM     11  CG2 VAL A 274     217.180 178.674 199.520  1.00 83.80     0.002 C 
ATOM     12  CG1 VAL A 274     215.680 176.724 199.036  1.00 74.90     0.002 C 
ATOM     13  CA  SER A 275     214.008 181.464 196.150  1.00 63.68     0.189 C 
ATOM     14  CB  SER A 275     213.202 181.973 197.344  1.00 53.99     0.169 C 
ATOM     15  OG  SER A 275     213.012 180.959 198.315  1.00 69.59    -0.380 OA
ATOM     16  HG  SER A 275     213.095 180.092 197.935  1.00  0.00     0.211 HD
ATOM     17  CA  TYR A 278     208.988 186.676 192.328  1.00 45.93     0.164 C 
ATOM     18  CB  TYR A 278     208.875 188.200 192.364  1.00 46.39     0.058 C 
ATOM     19  CG  TYR A 278     209.004 188.808 193.742  1.00 49.20    -0.020 A 
ATOM     20  CD2 TYR A 278     209.902 188.285 194.664  1.00 46.83    -0.002 A 
ATOM     21  CE2 TYR A 278     210.027 188.825 195.927  1.00 52.67     0.024 A 
ATOM     22  CZ  TYR A 278     209.250 189.902 196.285  1.00 55.35     0.089 A 
ATOM     23  CE1 TYR A 278     208.350 190.442 195.390  1.00 55.53     0.024 A 
ATOM     24  CD1 TYR A 278     208.230 189.895 194.126  1.00 50.19    -0.002 A 
ATOM     25  OH  TYR A 278     209.375 190.442 197.542  1.00 54.18    -0.359 OA
ATOM     26  HH  TYR A 278     209.979 190.053 198.163  1.00  0.00     0.217 HD
ATOM     27  CA  ASN A 279     205.913 184.718 191.231  1.00 49.32     0.169 C 
ATOM     28  CB  ASN A 279     206.291 183.397 190.562  1.00 41.19     0.119 C 
ATOM     29  CG  ASN A 279     205.167 182.833 189.729  1.00 49.81     0.230 C 
ATOM     30  OD1 ASN A 279     205.262 182.769 188.506  1.00 57.93    -0.273 OA
ATOM     31  ND2 ASN A 279     204.090 182.422 190.385  1.00 54.39    -0.369 N 
ATOM     32 2HD2 ASN A 279     204.011 182.476 191.400  1.00  0.00     0.159 HD
ATOM     33 1HD2 ASN A 279     203.330 182.042 189.822  1.00  0.00     0.159 HD
ATOM     34  CA  PHE A 280     202.335 184.098 192.325  1.00 48.50     0.164 C 
ATOM     35  CB  PHE A 280     201.775 185.418 192.860  1.00 46.97     0.058 C 
ATOM     36  CG  PHE A 280     201.561 185.420 194.339  1.00 48.53    -0.020 A 
ATOM     37  CD2 PHE A 280     202.522 185.943 195.193  1.00 47.66    -0.004 A 
ATOM     38  CE2 PHE A 280     202.327 185.937 196.562  1.00 56.11    -0.000 A 
ATOM     39  CZ  PHE A 280     201.163 185.396 197.091  1.00 54.55    -0.000 A 
ATOM     40  CE1 PHE A 280     200.202 184.870 196.250  1.00 58.17    -0.000 A 
ATOM     41  CD1 PHE A 280     200.405 184.879 194.881  1.00 57.66    -0.004 A 
ATOM     42  CA  ARG A 281     199.282 182.045 191.372  1.00 53.90     0.159 C 
ATOM     43  CB  ARG A 281     199.250 180.605 191.908  1.00 43.93     0.034 C 
ATOM     44  CG  ARG A 281     198.156 180.363 192.942  1.00 59.82     0.027 C 
ATOM     45  CD  ARG A 281     198.724 179.825 194.247  1.00 43.25     0.116 C 
ATOM     46  NE  ARG A 281     199.673 180.768 194.831  1.00 49.00    -0.212 N 
ATOM     47  CZ  ARG A 281     200.280 180.593 195.999  1.00 62.89     0.666 C 
ATOM     48  NH1 ARG A 281     200.035 179.509 196.725  1.00 74.80    -0.235 N 
ATOM     49  NH2 ARG A 281     201.128 181.505 196.444  1.00 61.99    -0.235 N 
ATOM     50 2HH1 ARG A 281     199.380 178.805 196.382  1.00  0.00     0.174 HD
ATOM     51 1HH1 ARG A 281     200.501 179.374 197.622  1.00  0.00     0.174 HD
ATOM     52 2HH2 ARG A 281     201.316 182.338 195.886  1.00  0.00     0.174 HD
ATOM     53 1HH2 ARG A 281     201.594 181.370 197.341  1.00  0.00     0.174 HD
ATOM     54  HE  ARG A 281     199.883 181.618 194.308  1.00  0.00     0.178 HD
ATOM     55  CA  LYS A 299     201.486 180.756 187.756  1.00 49.56     0.159 C 
ATOM     56  CB  LYS A 299     202.397 179.560 188.025  1.00 54.03     0.032 C 
ATOM     57  CG  LYS A 299     201.942 178.302 187.303  1.00 58.52     0.004 C 
ATOM     58  CD  LYS A 299     200.579 177.828 187.763  1.00 56.71     0.032 C 
ATOM     59  CE  LYS A 299     199.737 177.396 186.574  1.00 52.70     0.206 C 
ATOM     60  NZ  LYS A 299     198.972 176.157 186.854  1.00 62.42    -0.064 N 
ATOM     61  HZ3 LYS A 299     198.224 176.023 186.175  1.00  0.00     0.275 HD
ATOM     62  HZ2 LYS A 299     199.527 175.326 186.649  1.00  0.00     0.275 HD
ATOM     63  HZ1 LYS A 299     198.614 176.136 187.809  1.00  0.00     0.275 HD
ATOM     64  CA  ARG A 126     203.924 165.784 202.144  1.00149.40     0.159 C 
ATOM     65  CB  ARG A 126     204.246 164.987 200.881  1.00133.40     0.034 C 
ATOM     66  CG  ARG A 126     204.686 165.827 199.694  1.00130.01     0.027 C 
ATOM     67  CD  ARG A 126     206.201 165.956 199.666  1.00131.26     0.116 C 
ATOM     68  NE  ARG A 126     206.671 167.211 200.246  1.00126.38    -0.212 N 
ATOM     69  CZ  ARG A 126     207.335 167.296 201.393  1.00123.75     0.666 C 
ATOM     70  NH1 ARG A 126     207.611 166.196 202.080  1.00121.38    -0.235 N 
ATOM     71  NH2 ARG A 126     207.726 168.475 201.855  1.00134.78    -0.235 N 
ATOM     72 2HH1 ARG A 126     207.310 165.289 201.725  1.00  0.00     0.174 HD
ATOM     73 1HH1 ARG A 126     208.122 166.261 202.961  1.00  0.00     0.174 HD
ATOM     74 2HH2 ARG A 126     207.515 169.321 201.326  1.00  0.00     0.174 HD
ATOM     75 1HH2 ARG A 126     208.237 168.540 202.736  1.00  0.00     0.174 HD
ATOM     76  HE  ARG A 126     206.477 168.075 199.739  1.00  0.00     0.178 HD
ATOM     77  CA  LEU A 127     201.123 168.268 202.807  1.00153.88     0.160 C 
ATOM     78  CB  LEU A 127     200.758 168.860 204.171  1.00147.20     0.032 C 
ATOM     79  CG  LEU A 127     199.446 168.426 204.829  1.00145.17     0.002 C 
ATOM     80  CD1 LEU A 127     198.260 168.795 203.944  1.00 88.14     0.000 C 
ATOM     81  CD2 LEU A 127     199.455 166.933 205.123  1.00139.20     0.000 C 
ATOM     82  CA  GLU A 156     200.026 171.816 187.502  1.00 66.36     0.160 C 
ATOM     83  CB  GLU A 156     200.353 173.154 188.166  1.00 55.62     0.043 C 
ATOM     84  CG  GLU A 156     199.502 173.579 189.335  1.00 70.57     0.100 C 
ATOM     85  CD  GLU A 156     200.110 173.121 190.655  1.00 81.66     0.185 C 
ATOM     86  OE1 GLU A 156     200.768 173.941 191.331  1.00 65.56    -0.647 OA
ATOM     87  OE2 GLU A 156     199.916 171.943 191.024  1.00 89.99    -0.647 OA
ATOM     88  CA  VAL A 157     203.226 170.537 185.857  1.00 71.99     0.159 C 
ATOM     89  CB  VAL A 157     203.064 169.542 184.685  1.00 75.94     0.029 C 
ATOM     90  CG1 VAL A 157     203.763 168.234 184.995  1.00 76.66     0.002 C 
ATOM     91  CG2 VAL A 157     201.604 169.300 184.377  1.00 67.05     0.002 C 
ATOM     92  CA  ASP A 158     206.666 172.211 185.854  1.00 94.88     0.170 C 
ATOM     93  CB  ASP A 158     206.964 172.988 187.135  1.00104.96     0.129 C 
ATOM     94  CG  ASP A 158     206.429 172.299 188.375  1.00119.19     0.188 C 
ATOM     95  OD1 ASP A 158     205.315 172.648 188.822  1.00111.95    -0.647 OA
ATOM     96  OD2 ASP A 158     207.124 171.402 188.897  1.00131.05    -0.647 OA
ATOM     97  CA  THR A 235     212.747 184.477 187.590  1.00 53.73     0.186 C 
ATOM     98  CB  THR A 235     214.055 184.661 188.369  1.00 53.83     0.140 C 
ATOM     99  CG2 THR A 235     214.372 183.430 189.188  1.00 69.14     0.034 C 
ATOM    100  OG1 THR A 235     215.127 184.903 187.446  1.00 58.73    -0.382 OA
ATOM    101  HG1 THR A 235     215.894 184.417 187.724  1.00  0.00     0.210 HD
ATOM    102  CA  PHE A 301     206.276 185.417 186.926  1.00 52.37     0.164 C 
ATOM    103  CB  PHE A 301     207.456 184.607 186.381  1.00 49.06     0.058 C 
ATOM    104  CG  PHE A 301     208.455 184.193 187.413  1.00 51.77    -0.020 A 
ATOM    105  CD1 PHE A 301     208.355 184.647 188.721  1.00 53.15    -0.004 A 
ATOM    106  CE1 PHE A 301     209.277 184.256 189.679  1.00 57.48    -0.000 A 
ATOM    107  CZ  PHE A 301     210.290 183.383 189.344  1.00 55.39    -0.000 A 
ATOM    108  CE2 PHE A 301     210.386 182.904 188.048  1.00 55.43    -0.000 A 
ATOM    109  CD2 PHE A 301     209.467 183.304 187.092  1.00 51.71    -0.004 A 
ENDMDL
REMARK VINA RESULT:      -6.2      3.304      5.199
REMARK  15 active torsions:
REMARK  status: ('A' for Active; 'I' for Inactive)
REMARK    1  A    between atoms: C_3  and  C_23 
REMARK    2  A    between atoms: C_3  and  O_18 
REMARK    3  A    between atoms: C_8  and  N_30 
REMARK    4  A    between atoms: O_12  and  C_22 
REMARK    5  A    between atoms: O_13  and  C_24 
REMARK    6  A    between atoms: O_14  and  P_34 
REMARK    7  A    between atoms: O_15  and  P_35 
REMARK    8  A    between atoms: O_16  and  P_36 
REMARK    9  A    between atoms: O_17  and  P_36 
REMARK   10  A    between atoms: O_18  and  P_34 
REMARK   11  A    between atoms: O_19  and  P_34 
REMARK   12  A    between atoms: O_19  and  P_35 
REMARK   13  A    between atoms: O_20  and  P_35 
REMARK   14  A    between atoms: O_20  and  P_36 
REMARK   15  A    between atoms: C_21  and  N_39 
REMARK  2 active torsions:
REMARK  status: ('A' for Active; 'I' for Inactive)
REMARK    1  A    between atoms: CA   and  CB  
REMARK    2  A    between atoms: CB   and  OG  
REMARK  2 active torsions:
REMARK  status: ('A' for Active; 'I' for Inactive)
REMARK    3  A    between atoms: CA   and  CB  
REMARK    4  A    between atoms: CB   and  OG  
REMARK  1 active torsions:
REMARK  status: ('A' for Active; 'I' for Inactive)
REMARK    5  A    between atoms: CA   and  CB  
REMARK  2 active torsions:
REMARK  status: ('A' for Active; 'I' for Inactive)
REMARK    6  A    between atoms: CA   and  CB  
REMARK    7  A    between atoms: CB   and  OG  
REMARK  3 active torsions:
REMARK  status: ('A' for Active; 'I' for Inactive)
REMARK    8  A    between atoms: CA   and  CB  
REMARK    9  A    between atoms: CB   and  CG  
REMARK   10  A    between atoms: CZ   and  OH  
REMARK  2 active torsions:
REMARK  status: ('A' for Active; 'I' for Inactive)
REMARK   11  A    between atoms: CA   and  CB  
REMARK   12  A    between atoms: CB   and  CG  
REMARK       I    between atoms: CG   and  ND2 
REMARK  2 active torsions:
REMARK  status: ('A' for Active; 'I' for Inactive)
REMARK   13  A    between atoms: CA   and  CB  
REMARK   14  A    between atoms: CB   and  CG  
REMARK  4 active torsions:
REMARK  status: ('A' for Active; 'I' for Inactive)
REMARK   15  A    between atoms: CA   and  CB  
REMARK   16  A    between atoms: CB   and  CG  
REMARK   17  A    between atoms: CG   and  CD  
REMARK   18  A    between atoms: CD   and  NE  
REMARK       I    between atoms: NE   and  CZ  
REMARK       I    between atoms: CZ   and  NH1 
REMARK       I    between atoms: CZ   and  NH2 
REMARK  5 active torsions:
REMARK  status: ('A' for Active; 'I' for Inactive)
REMARK   19  A    between atoms: CA   and  CB  
REMARK   20  A    between atoms: CB   and  CG  
REMARK   21  A    between atoms: CG   and  CD  
REMARK   22  A    between atoms: CD   and  CE  
REMARK   23  A    between atoms: CE   and  NZ  
REMARK  4 active torsions:
REMARK  status: ('A' for Active; 'I' for Inactive)
REMARK   24  A    between atoms: CA   and  CB  
REMARK   25  A    between atoms: CB   and  CG  
REMARK   26  A    between atoms: CG   and  CD  
REMARK   27  A    between atoms: CD   and  NE  
REMARK       I    between atoms: NE   and  CZ  
REMARK       I    between atoms: CZ   and  NH1 
REMARK       I    between atoms: CZ   and  NH2 
REMARK  2 active torsions:
REMARK  status: ('A' for Active; 'I' for Inactive)
REMARK   28  A    between atoms: CA   and  CB  
REMARK   29  A    between atoms: CB   and  CG  
REMARK  3 active torsions:
REMARK  status: ('A' for Active; 'I' for Inactive)
REMARK   30  A    between atoms: CA   and  CB  
REMARK   31  A    between atoms: CB   and  CG  
REMARK   32  A    between atoms: CG   and  CD  
REMARK  1 active torsions:
REMARK  status: ('A' for Active; 'I' for Inactive)
REMARK   33  A    between atoms: CA   and  CB  
REMARK  2 active torsions:
REMARK  status: ('A' for Active; 'I' for Inactive)
REMARK   34  A    between atoms: CA   and  CB  
REMARK   35  A    between atoms: CB   and  CG  
REMARK  2 active torsions:
REMARK  status: ('A' for Active; 'I' for Inactive)
REMARK   36  A    between atoms: CA   and  CB  
REMARK   37  A    between atoms: CB   and  OG1 
REMARK  2 active torsions:
REMARK  status: ('A' for Active; 'I' for Inactive)
REMARK   38  A    between atoms: CA   and  CB  
REMARK   39  A    between atoms: CB   and  CG  
REMARK viewdock state: V
ATOM      1  C   LIG d   1     210.456 181.779 194.169  0.00  0.00     0.203 A 
ATOM      2  C   LIG d   1     206.526 181.483 196.044  0.00  0.00     0.225 A 
ATOM      3  C   LIG d   1     207.491 183.405 195.168  0.00  0.00     0.147 A 
ATOM      4  N   LIG d   1     207.527 180.625 195.744  0.00  0.00    -0.216 NA
ATOM      5  N   LIG d   1     209.805 182.923 194.217  0.00  0.00    -0.231 NA
ATOM      6  N   LIG d   1     206.454 182.809 195.801  0.00  0.00    -0.219 NA
ATOM      7  C   LIG d   1     208.540 181.274 195.142  0.00  0.00     0.167 A 
ATOM      8  C   LIG d   1     208.604 182.621 194.823  0.00  0.00     0.147 A 
ATOM      9  N   LIG d   1     209.727 180.749 194.701  0.00  0.00    -0.285 N 
ATOM     10  C   LIG d   1     210.130 179.361 194.834  0.00  0.00     0.253 C 
ATOM     11  O   LIG d   1     209.281 178.536 194.009  0.00  0.00    -0.346 OA
ATOM     12  C   LIG d   1     208.864 177.387 194.791  0.00  0.00     0.178 C 
ATOM     13  C   LIG d   1     209.771 177.348 196.016  0.00  0.00     0.178 C 
ATOM     14  C   LIG d   1     210.005 178.825 196.267  0.00  0.00     0.195 C 
ATOM     15  C   LIG d   1     208.919 176.131 193.927  0.00  0.00     0.206 C 
ATOM     16  O   LIG d   1     208.591 176.485 192.586  0.00  0.00    -0.284 OA
ATOM     17  P   LIG d   1     208.404 175.271 191.549  0.00  0.00     0.483 P 
ATOM     18  O   LIG d   1     207.052 175.166 190.934  0.00  0.00    -0.227 OA
ATOM     19  O   LIG d   1     208.908 174.005 192.360  0.00  0.00    -0.186 OA
ATOM     20  P   LIG d   1     208.944 172.525 191.794  0.00  0.00     0.492 P 
ATOM     21  O   LIG d   1     208.012 171.528 192.384  0.00  0.00    -0.227 OA
ATOM     22  O   LIG d   1     210.490 172.153 191.844  0.00  0.00    -0.186 OA
ATOM     23  P   LIG d   1     211.464 172.807 192.904  0.00  0.00     0.481 P 
ATOM     24  O   LIG d   1     211.046 172.843 194.329  0.00  0.00    -0.227 OA
ATOM     25  O   LIG d   1     211.741 174.263 192.309  0.00  0.00    -0.302 OA
ATOM     26  H   LIG d   1     211.235 174.945 192.792  0.00  0.00     0.222 HD
ATOM     27  O   LIG d   1     212.879 172.099 192.651  0.00  0.00    -0.302 OA
ATOM     28  H   LIG d   1     213.325 172.525 191.892  0.00  0.00     0.222 HD
ATOM     29  O   LIG d   1     208.723 172.765 190.219  0.00  0.00    -0.302 OA
ATOM     30  H   LIG d   1     208.358 173.665 190.068  0.00  0.00     0.222 HD
ATOM     31  O   LIG d   1     209.597 175.556 190.518  0.00  0.00    -0.302 OA
ATOM     32  H   LIG d   1     209.485 176.397 190.038  0.00  0.00     0.222 HD
ATOM     33  O   LIG d   1     211.019 176.710 195.735  0.00  0.00    -0.386 OA
ATOM     34  H   LIG d   1     211.007 176.529 194.771  0.00  0.00     0.210 HD
ATOM     35  O   LIG d   1     211.172 179.003 197.071  0.00  0.00    -0.385 OA
ATOM     36  H   LIG d   1     211.927 179.098 196.449  0.00  0.00     0.210 HD
ATOM     37  N   LIG d   1     207.410 184.767 194.912  0.00  0.00    -0.341 NA
ATOM     38  H   LIG d   1     208.308 185.187 194.697  0.00  0.00     0.144 HD
ATOM     39  H   LIG d   1     206.821 185.244 195.581  0.00  0.00     0.144 HD
ATOM      1  CA  SER A 272     219.500 182.733 197.389  1.00 76.05     0.189 C 
ATOM      2  CB  SER A 272     218.127 183.058 197.980  1.00 67.27     0.169 C 
ATOM      3  OG  SER A 272     217.398 183.922 197.122  1.00 67.48    -0.380 OA
ATOM      4  HG  SER A 272     217.254 184.766 197.534  1.00  0.00     0.211 HD
ATOM      5  CA  SER A 273     219.476 179.341 195.712  1.00 95.92     0.189 C 
ATOM      6  CB  SER A 273     220.525 178.254 195.952  1.00101.58     0.169 C 
ATOM      7  OG  SER A 273     220.938 177.679 194.723  1.00 85.34    -0.380 OA
ATOM      8  HG  SER A 273     221.861 177.844 194.570  1.00  0.00     0.211 HD
ATOM      9  CA  VAL A 274     216.112 178.448 197.254  1.00 73.25     0.159 C 
ATOM     10  CB  VAL A 274     215.954 178.192 198.764  1.00 64.82     0.029 C 
ATOM     11  CG2 VAL A 274     217.179 178.675 199.520  1.00 83.80     0.002 C 
ATOM     12  CG1 VAL A 274     215.681 176.723 199.036  1.00 74.90     0.002 C 
ATOM     13  CA  SER A 275     214.008 181.464 196.150  1.00 63.68     0.189 C 
ATOM     14  CB  SER A 275     213.202 181.973 197.344  1.00 53.99     0.169 C 
ATOM     15  OG  SER A 275     213.033 180.966 198.326  1.00 69.59    -0.380 OA
ATOM     16  HG  SER A 275     212.310 180.388 198.113  1.00  0.00     0.211 HD
ATOM     17  CA  TYR A 278     208.988 186.676 192.328  1.00 45.93     0.164 C 
ATOM     18  CB  TYR A 278     208.875 188.200 192.364  1.00 46.39     0.058 C 
ATOM     19  CG  TYR A 278     209.004 188.808 193.742  1.00 49.20    -0.020 A 
ATOM     20  CD2 TYR A 278     209.902 188.285 194.664  1.00 46.83    -0.002 A 
ATOM     21  CE2 TYR A 278     210.027 188.825 195.927  1.00 52.67     0.024 A 
ATOM     22  CZ  TYR A 278     209.250 189.902 196.285  1.00 55.35     0.089 A 
ATOM     23  CE1 TYR A 278     208.350 190.442 195.390  1.00 55.53     0.024 A 
ATOM     24  CD1 TYR A 278     208.230 189.895 194.126  1.00 50.19    -0.002 A 
ATOM     25  OH  TYR A 278     209.375 190.442 197.542  1.00 54.18    -0.359 OA
ATOM     26  HH  TYR A 278     209.201 191.367 197.676  1.00  0.00     0.217 HD
ATOM     27  CA  ASN A 279     205.913 184.718 191.231  1.00 49.32     0.169 C 
ATOM     28  CB  ASN A 279     206.291 183.397 190.562  1.00 41.19     0.119 C 
ATOM     29  CG  ASN A 279     205.150 182.808 189.770  1.00 49.81     0.230 C 
ATOM     30  OD1 ASN A 279     205.136 182.876 188.543  1.00 57.93    -0.273 OA
ATOM     31  ND2 ASN A 279     204.182 182.227 190.465  1.00 54.39    -0.369 N 
ATOM     32 2HD2 ASN A 279     204.194 182.170 191.483  1.00  0.00     0.159 HD
ATOM     33 1HD2 ASN A 279     203.411 181.829 189.929  1.00  0.00     0.159 HD
ATOM     34  CA  PHE A 280     202.335 184.098 192.325  1.00 48.50     0.164 C 
ATOM     35  CB  PHE A 280     201.775 185.418 192.860  1.00 46.97     0.058 C 
ATOM     36  CG  PHE A 280     201.725 185.484 194.352  1.00 48.53    -0.020 A 
ATOM     37  CD2 PHE A 280     200.798 184.733 195.063  1.00 47.66    -0.004 A 
ATOM     38  CE2 PHE A 280     200.746 184.801 196.443  1.00 56.11    -0.000 A 
ATOM     39  CZ  PHE A 280     201.622 185.633 197.127  1.00 54.55    -0.000 A 
ATOM     40  CE1 PHE A 280     202.545 186.386 196.429  1.00 58.17    -0.000 A 
ATOM     41  CD1 PHE A 280     202.592 186.313 195.047  1.00 57.66    -0.004 A 
ATOM     42  CA  ARG A 281     199.282 182.045 191.372  1.00 53.90     0.159 C 
ATOM     43  CB  ARG A 281     199.250 180.605 191.908  1.00 43.93     0.034 C 
ATOM     44  CG  ARG A 281     198.037 180.306 192.782  1.00 59.82     0.027 C 
ATOM     45  CD  ARG A 281     198.423 180.134 194.242  1.00 43.25     0.116 C 
ATOM     46  NE  ARG A 281     197.982 178.839 194.750  1.00 49.00    -0.212 N 
ATOM     47  CZ  ARG A 281     196.900 178.656 195.498  1.00 62.89     0.666 C 
ATOM     48  NH1 ARG A 281     196.140 179.689 195.840  1.00 74.80    -0.235 N 
ATOM     49  NH2 ARG A 281     196.580 177.440 195.908  1.00 61.99    -0.235 N 
ATOM     50 2HH1 ARG A 281     196.387 180.628 195.524  1.00  0.00     0.174 HD
ATOM     51 1HH1 ARG A 281     195.309 179.549 196.415  1.00  0.00     0.174 HD
ATOM     52 2HH2 ARG A 281     197.164 176.646 195.646  1.00  0.00     0.174 HD
ATOM     53 1HH2 ARG A 281     195.749 177.300 196.482  1.00  0.00     0.174 HD
ATOM     54  HE  ARG A 281     198.542 178.019 194.515  1.00  0.00     0.178 HD
ATOM     55  CA  LYS A 299     201.486 180.756 187.756  1.00 49.56     0.159 C 
ATOM     56  CB  LYS A 299     202.397 179.560 188.025  1.00 54.03     0.032 C 
ATOM     57  CG  LYS A 299     202.048 178.352 187.171  1.00 58.52     0.004 C 
ATOM     58  CD  LYS A 299     200.708 177.748 187.537  1.00 56.71     0.032 C 
ATOM     59  CE  LYS A 299     200.074 177.085 186.326  1.00 52.70     0.206 C 
ATOM     60  NZ  LYS A 299     198.796 176.414 186.664  1.00 62.42    -0.064 N 
ATOM     61  HZ3 LYS A 299     198.436 175.882 185.872  1.00  0.00     0.275 HD
ATOM     62  HZ2 LYS A 299     198.943 175.647 187.320  1.00  0.00     0.275 HD
ATOM     63  HZ1 LYS A 299     198.099 177.072 187.015  1.00  0.00     0.275 HD
ATOM     64  CA  ARG A 126     203.924 165.784 202.144  1.00149.40     0.159 C 
ATOM     65  CB  ARG A 126     204.246 164.987 200.881  1.00133.40     0.034 C 
ATOM     66  CG  ARG A 126     204.801 165.812 199.732  1.00130.01     0.027 C 
ATOM     67  CD  ARG A 126     206.129 166.442 200.122  1.00131.26     0.116 C 
ATOM     68  NE  ARG A 126     207.268 165.811 199.462  1.00126.38    -0.212 N 
ATOM     69  CZ  ARG A 126     208.376 166.458 199.116  1.00123.75     0.666 C 
ATOM     70  NH1 ARG A 126     208.493 167.753 199.371  1.00121.38    -0.235 N 
ATOM     71  NH2 ARG A 126     209.367 165.814 198.516  1.00134.78    -0.235 N 
ATOM     72 2HH1 ARG A 126     207.730 168.249 199.832  1.00  0.00     0.174 HD
ATOM     73 1HH1 ARG A 126     209.344 168.250 199.105  1.00  0.00     0.174 HD
ATOM     74 2HH2 ARG A 126     209.278 164.817 198.319  1.00  0.00     0.174 HD
ATOM     75 1HH2 ARG A 126     210.218 166.310 198.250  1.00  0.00     0.174 HD
ATOM     76  HE  ARG A 126     207.211 164.814 199.255  1.00  0.00     0.178 HD
ATOM     77  CA  LEU A 127     201.123 168.268 202.807  1.00153.88     0.160 C 
ATOM     78  CB  LEU A 127     200.758 168.860 204.171  1.00147.20     0.032 C 
ATOM     79  CG  LEU A 127     199.442 168.432 204.825  1.00145.17     0.002 C 
ATOM     80  CD1 LEU A 127     198.262 168.783 203.924  1.00 88.14     0.000 C 
ATOM     81  CD2 LEU A 127     199.453 166.945 205.143  1.00139.20     0.000 C 
ATOM     82  CA  GLU A 156     200.026 171.816 187.502  1.00 66.36     0.160 C 
ATOM     83  CB  GLU A 156     200.353 173.154 188.166  1.00 55.62     0.043 C 
ATOM     84  CG  GLU A 156     199.436 173.631 189.263  1.00 70.57     0.100 C 
ATOM     85  CD  GLU A 156     199.974 173.250 190.636  1.00 81.66     0.185 C 
ATOM     86  OE1 GLU A 156     199.922 172.053 190.992  1.00 65.56    -0.647 OA
ATOM     87  OE2 GLU A 156     200.462 174.148 191.356  1.00 89.99    -0.647 OA
ATOM     88  CA  VAL A 157     203.226 170.537 185.857  1.00 71.99     0.159 C 
ATOM     89  CB  VAL A 157     203.064 169.542 184.685  1.00 75.94     0.029 C 
ATOM     90  CG1 VAL A 157     203.764 168.235 184.994  1.00 76.66     0.002 C 
ATOM     91  CG2 VAL A 157     201.604 169.299 184.379  1.00 67.05     0.002 C 
ATOM     92  CA  ASP A 158     206.666 172.211 185.854  1.00 94.88     0.170 C 
ATOM     93  CB  ASP A 158     206.964 172.988 187.135  1.00104.96     0.129 C 
ATOM     94  CG  ASP A 158     205.914 172.772 188.207  1.00119.19     0.188 C 
ATOM     95  OD1 ASP A 158     206.087 171.855 189.040  1.00111.95    -0.647 OA
ATOM     96  OD2 ASP A 158     204.919 173.527 188.218  1.00131.05    -0.647 OA
ATOM     97  CA  THR A 235     212.747 184.477 187.590  1.00 53.73     0.186 C 
ATOM     98  CB  THR A 235     214.055 184.661 188.369  1.00 53.83     0.140 C 
ATOM     99  CG2 THR A 235     214.078 185.998 189.074  1.00 69.14     0.034 C 
ATOM    100  OG1 THR A 235     214.180 183.613 189.340  1.00 58.73    -0.382 OA
ATOM    101  HG1 THR A 235     214.799 183.878 190.010  1.00  0.00     0.210 HD
ATOM    102  CA  PHE A 301     206.276 185.417 186.926  1.00 52.37     0.164 C 
ATOM    103  CB  PHE A 301     207.456 184.607 186.381  1.00 49.06     0.058 C 
ATOM    104  CG  PHE A 301     208.579 185.432 185.840  1.00 51.77    -0.020 A 
ATOM    105  CD1 PHE A 301     209.179 185.110 184.631  1.00 53.15    -0.004 A 
ATOM    106  CE1 PHE A 301     210.214 185.880 184.125  1.00 57.48    -0.000 A 
ATOM    107  CZ  PHE A 301     210.640 186.997 184.813  1.00 55.39    -0.000 A 
ATOM    108  CE2 PHE A 301     210.033 187.343 186.009  1.00 55.43    -0.000 A 
ATOM    109  CD2 PHE A 301     209.004 186.566 186.513  1.00 51.71    -0.004 A 
ENDMDL
REMARK VINA RESULT:      -6.0      3.155      5.578
REMARK  15 active torsions:
REMARK  status: ('A' for Active; 'I' for Inactive)
REMARK    1  A    between atoms: C_3  and  C_23 
REMARK    2  A    between atoms: C_3  and  O_18 
REMARK    3  A    between atoms: C_8  and  N_30 
REMARK    4  A    between atoms: O_12  and  C_22 
REMARK    5  A    between atoms: O_13  and  C_24 
REMARK    6  A    between atoms: O_14  and  P_34 
REMARK    7  A    between atoms: O_15  and  P_35 
REMARK    8  A    between atoms: O_16  and  P_36 
REMARK    9  A    between atoms: O_17  and  P_36 
REMARK   10  A    between atoms: O_18  and  P_34 
REMARK   11  A    between atoms: O_19  and  P_34 
REMARK   12  A    between atoms: O_19  and  P_35 
REMARK   13  A    between atoms: O_20  and  P_35 
REMARK   14  A    between atoms: O_20  and  P_36 
REMARK   15  A    between atoms: C_21  and  N_39 
REMARK  2 active torsions:
REMARK  status: ('A' for Active; 'I' for Inactive)
REMARK    1  A    between atoms: CA   and  CB  
REMARK    2  A    between atoms: CB   and  OG  
REMARK  2 active torsions:
REMARK  status: ('A' for Active; 'I' for Inactive)
REMARK    3  A    between atoms: CA   and  CB  
REMARK    4  A    between atoms: CB   and  OG  
REMARK  1 active torsions:
REMARK  status: ('A' for Active; 'I' for Inactive)
REMARK    5  A    between atoms: CA   and  CB  
REMARK  2 active torsions:
REMARK  status: ('A' for Active; 'I' for Inactive)
REMARK    6  A    between atoms: CA   and  CB  
REMARK    7  A    between atoms: CB   and  OG  
REMARK  3 active torsions:
REMARK  status: ('A' for Active; 'I' for Inactive)
REMARK    8  A    between atoms: CA   and  CB  
REMARK    9  A    between atoms: CB   and  CG  
REMARK   10  A    between atoms: CZ   and  OH  
REMARK  2 active torsions:
REMARK  status: ('A' for Active; 'I' for Inactive)
REMARK   11  A    between atoms: CA   and  CB  
REMARK   12  A    between atoms: CB   and  CG  
REMARK       I    between atoms: CG   and  ND2 
REMARK  2 active torsions:
REMARK  status: ('A' for Active; 'I' for Inactive)
REMARK   13  A    between atoms: CA   and  CB  
REMARK   14  A    between atoms: CB   and  CG  
REMARK  4 active torsions:
REMARK  status: ('A' for Active; 'I' for Inactive)
REMARK   15  A    between atoms: CA   and  CB  
REMARK   16  A    between atoms: CB   and  CG  
REMARK   17  A    between atoms: CG   and  CD  
REMARK   18  A    between atoms: CD   and  NE  
REMARK       I    between atoms: NE   and  CZ  
REMARK       I    between atoms: CZ   and  NH1 
REMARK       I    between atoms: CZ   and  NH2 
REMARK  5 active torsions:
REMARK  status: ('A' for Active; 'I' for Inactive)
REMARK   19  A    between atoms: CA   and  CB  
REMARK   20  A    between atoms: CB   and  CG  
REMARK   21  A    between atoms: CG   and  CD  
REMARK   22  A    between atoms: CD   and  CE  
REMARK   23  A    between atoms: CE   and  NZ  
REMARK  4 active torsions:
REMARK  status: ('A' for Active; 'I' for Inactive)
REMARK   24  A    between atoms: CA   and  CB  
REMARK   25  A    between atoms: CB   and  CG  
REMARK   26  A    between atoms: CG   and  CD  
REMARK   27  A    between atoms: CD   and  NE  
REMARK       I    between atoms: NE   and  CZ  
REMARK       I    between atoms: CZ   and  NH1 
REMARK       I    between atoms: CZ   and  NH2 
REMARK  2 active torsions:
REMARK  status: ('A' for Active; 'I' for Inactive)
REMARK   28  A    between atoms: CA   and  CB  
REMARK   29  A    between atoms: CB   and  CG  
REMARK  3 active torsions:
REMARK  status: ('A' for Active; 'I' for Inactive)
REMARK   30  A    between atoms: CA   and  CB  
REMARK   31  A    between atoms: CB   and  CG  
REMARK   32  A    between atoms: CG   and  CD  
REMARK  1 active torsions:
REMARK  status: ('A' for Active; 'I' for Inactive)
REMARK   33  A    between atoms: CA   and  CB  
REMARK  2 active torsions:
REMARK  status: ('A' for Active; 'I' for Inactive)
REMARK   34  A    between atoms: CA   and  CB  
REMARK   35  A    between atoms: CB   and  CG  
REMARK  2 active torsions:
REMARK  status: ('A' for Active; 'I' for Inactive)
REMARK   36  A    between atoms: CA   and  CB  
REMARK   37  A    between atoms: CB   and  OG1 
REMARK  2 active torsions:
REMARK  status: ('A' for Active; 'I' for Inactive)
REMARK   38  A    between atoms: CA   and  CB  
REMARK   39  A    between atoms: CB   and  CG  
REMARK viewdock state: V
ATOM      1  C   LIG d   1     207.759 180.932 196.462  0.00  0.00     0.203 A 
ATOM      2  C   LIG d   1     208.770 185.173 196.676  0.00  0.00     0.225 A 
ATOM      3  C   LIG d   1     207.578 183.961 198.259  0.00  0.00     0.147 A 
ATOM      4  N   LIG d   1     209.008 184.160 195.814  0.00  0.00    -0.216 NA
ATOM      5  N   LIG d   1     207.315 181.528 197.549  0.00  0.00    -0.231 NA
ATOM      6  N   LIG d   1     208.096 185.141 197.846  0.00  0.00    -0.219 NA
ATOM      7  C   LIG d   1     208.449 183.020 196.260  0.00  0.00     0.167 A 
ATOM      8  C   LIG d   1     207.740 182.835 197.436  0.00  0.00     0.147 A 
ATOM      9  N   LIG d   1     208.464 181.788 195.658  0.00  0.00    -0.285 N 
ATOM     10  C   LIG d   1     209.081 181.489 194.378  0.00  0.00     0.253 C 
ATOM     11  O   LIG d   1     208.717 180.153 193.974  0.00  0.00    -0.346 OA
ATOM     12  C   LIG d   1     209.914 179.475 193.512  0.00  0.00     0.178 C 
ATOM     13  C   LIG d   1     210.970 180.556 193.314  0.00  0.00     0.178 C 
ATOM     14  C   LIG d   1     210.615 181.535 194.416  0.00  0.00     0.195 C 
ATOM     15  C   LIG d   1     209.596 178.668 192.258  0.00  0.00     0.206 C 
ATOM     16  O   LIG d   1     210.797 178.056 191.793  0.00  0.00    -0.284 OA
ATOM     17  P   LIG d   1     211.046 178.080 190.205  0.00  0.00     0.483 P 
ATOM     18  O   LIG d   1     211.535 176.800 189.622  0.00  0.00    -0.227 OA
ATOM     19  O   LIG d   1     211.971 179.350 189.990  0.00  0.00    -0.186 OA
ATOM     20  P   LIG d   1     212.033 180.208 188.659  0.00  0.00     0.492 P 
ATOM     21  O   LIG d   1     211.319 179.692 187.461  0.00  0.00    -0.227 OA
ATOM     22  O   LIG d   1     213.589 180.489 188.478  0.00  0.00    -0.186 OA
ATOM     23  P   LIG d   1     214.494 179.571 187.561  0.00  0.00     0.481 P 
ATOM     24  O   LIG d   1     214.663 179.939 186.132  0.00  0.00    -0.227 OA
ATOM     25  O   LIG d   1     213.863 178.116 187.750  0.00  0.00    -0.302 OA
ATOM     26  H   LIG d   1     213.951 177.583 186.936  0.00  0.00     0.222 HD
ATOM     27  O   LIG d   1     215.869 179.417 188.368  0.00  0.00    -0.302 OA
ATOM     28  H   LIG d   1     216.087 178.468 188.460  0.00  0.00     0.222 HD
ATOM     29  O   LIG d   1     211.504 181.641 189.161  0.00  0.00    -0.302 OA
ATOM     30  H   LIG d   1     211.384 181.628 190.136  0.00  0.00     0.222 HD
ATOM     31  O   LIG d   1     209.614 178.564 189.673  0.00  0.00    -0.302 OA
ATOM     32  H   LIG d   1     209.530 178.493 188.704  0.00  0.00     0.222 HD
ATOM     33  O   LIG d   1     210.842 181.201 192.045  0.00  0.00    -0.386 OA
ATOM     34  H   LIG d   1     209.898 181.099 191.796  0.00  0.00     0.210 HD
ATOM     35  O   LIG d   1     211.178 182.816 194.130  0.00  0.00    -0.385 OA
ATOM     36  H   LIG d   1     212.152 182.691 194.097  0.00  0.00     0.210 HD
ATOM     37  N   LIG d   1     206.894 183.930 199.466  0.00  0.00    -0.341 NA
ATOM     38  H   LIG d   1     207.415 184.344 200.232  0.00  0.00     0.144 HD
ATOM     39  H   LIG d   1     206.458 183.033 199.632  0.00  0.00     0.144 HD
ATOM      1  CA  SER A 272     219.500 182.733 197.389  1.00 76.05     0.189 C 
ATOM      2  CB  SER A 272     218.127 183.058 197.980  1.00 67.27     0.169 C 
ATOM      3  OG  SER A 272     217.379 183.882 197.100  1.00 67.48    -0.380 OA
ATOM      4  HG  SER A 272     217.750 183.867 196.225  1.00  0.00     0.211 HD
ATOM      5  CA  SER A 273     219.476 179.341 195.712  1.00 95.92     0.189 C 
ATOM      6  CB  SER A 273     220.525 178.254 195.952  1.00101.58     0.169 C 
ATOM      7  OG  SER A 273     220.930 177.671 194.724  1.00 85.34    -0.380 OA
ATOM      8  HG  SER A 273     221.844 177.860 194.549  1.00  0.00     0.211 HD
ATOM      9  CA  VAL A 274     216.112 178.448 197.254  1.00 73.25     0.159 C 
ATOM     10  CB  VAL A 274     215.954 178.192 198.764  1.00 64.82     0.029 C 
ATOM     11  CG2 VAL A 274     217.179 178.676 199.520  1.00 83.80     0.002 C 
ATOM     12  CG1 VAL A 274     215.682 176.723 199.036  1.00 74.90     0.002 C 
ATOM     13  CA  SER A 275     214.008 181.464 196.150  1.00 63.68     0.189 C 
ATOM     14  CB  SER A 275     213.202 181.973 197.344  1.00 53.99     0.169 C 
ATOM     15  OG  SER A 275     213.075 180.981 198.347  1.00 69.59    -0.380 OA
ATOM     16  HG  SER A 275     212.926 180.122 197.972  1.00  0.00     0.211 HD
ATOM     17  CA  TYR A 278     208.988 186.676 192.328  1.00 45.93     0.164 C 
ATOM     18  CB  TYR A 278     208.875 188.200 192.364  1.00 46.39     0.058 C 
ATOM     19  CG  TYR A 278     208.940 188.803 193.748  1.00 49.20    -0.020 A 
ATOM     20  CD2 TYR A 278     208.175 188.280 194.784  1.00 46.83    -0.002 A 
ATOM     21  CE2 TYR A 278     208.219 188.822 196.051  1.00 52.67     0.024 A 
ATOM     22  CZ  TYR A 278     209.035 189.902 196.300  1.00 55.35     0.089 A 
ATOM     23  CE1 TYR A 278     209.805 190.442 195.291  1.00 55.53     0.024 A 
ATOM     24  CD1 TYR A 278     209.755 189.893 194.023  1.00 50.19    -0.002 A 
ATOM     25  OH  TYR A 278     209.081 190.442 197.562  1.00 54.18    -0.359 OA
ATOM     26  HH  TYR A 278     208.418 190.206 198.200  1.00  0.00     0.217 HD
ATOM     27  CA  ASN A 279     205.913 184.718 191.231  1.00 49.32     0.169 C 
ATOM     28  CB  ASN A 279     206.291 183.397 190.562  1.00 41.19     0.119 C 
ATOM     29  CG  ASN A 279     205.103 182.711 189.936  1.00 49.81     0.230 C 
ATOM     30  OD1 ASN A 279     204.188 182.278 190.632  1.00 57.93    -0.273 OA
ATOM     31  ND2 ASN A 279     205.108 182.602 188.614  1.00 54.39    -0.369 N 
ATOM     32 2HD2 ASN A 279     205.868 182.961 188.036  1.00  0.00     0.159 HD
ATOM     33 1HD2 ASN A 279     204.305 182.138 188.191  1.00  0.00     0.159 HD
ATOM     34  CA  PHE A 280     202.335 184.098 192.325  1.00 48.50     0.164 C 
ATOM     35  CB  PHE A 280     201.775 185.418 192.860  1.00 46.97     0.058 C 
ATOM     36  CG  PHE A 280     201.723 185.483 194.352  1.00 48.53    -0.020 A 
ATOM     37  CD2 PHE A 280     200.796 184.732 195.061  1.00 47.66    -0.004 A 
ATOM     38  CE2 PHE A 280     200.743 184.800 196.442  1.00 56.11    -0.000 A 
ATOM     39  CZ  PHE A 280     201.618 185.631 197.127  1.00 54.55    -0.000 A 
ATOM     40  CE1 PHE A 280     202.542 186.385 196.430  1.00 58.17    -0.000 A 
ATOM     41  CD1 PHE A 280     202.589 186.312 195.049  1.00 57.66    -0.004 A 
ATOM     42  CA  ARG A 281     199.282 182.045 191.372  1.00 53.90     0.159 C 
ATOM     43  CB  ARG A 281     199.250 180.605 191.908  1.00 43.93     0.034 C 
ATOM     44  CG  ARG A 281     198.064 180.321 192.823  1.00 59.82     0.027 C 
ATOM     45  CD  ARG A 281     198.494 180.171 194.273  1.00 43.25     0.116 C 
ATOM     46  NE  ARG A 281     197.714 179.136 194.945  1.00 49.00    -0.212 N 
ATOM     47  CZ  ARG A 281     198.238 178.075 195.548  1.00 62.89     0.666 C 
ATOM     48  NH1 ARG A 281     199.553 177.894 195.561  1.00 74.80    -0.235 N 
ATOM     49  NH2 ARG A 281     197.447 177.192 196.133  1.00 61.99    -0.235 N 
ATOM     50 2HH1 ARG A 281     200.164 178.575 195.109  1.00  0.00     0.174 HD
ATOM     51 1HH1 ARG A 281     199.956 177.079 196.023  1.00  0.00     0.174 HD
ATOM     52 2HH2 ARG A 281     196.437 177.330 196.123  1.00  0.00     0.174 HD
ATOM     53 1HH2 ARG A 281     197.850 176.377 196.596  1.00  0.00     0.174 HD
ATOM     54  HE  ARG A 281     196.699 179.234 194.952  1.00  0.00     0.178 HD
ATOM     55  CA  LYS A 299     201.486 180.756 187.756  1.00 49.56     0.159 C 
ATOM     56  CB  LYS A 299     202.397 179.560 188.025  1.00 54.03     0.032 C 
ATOM     57  CG  LYS A 299     201.636 178.343 188.526  1.00 58.52     0.004 C 
ATOM     58  CD  LYS A 299     200.279 178.196 187.871  1.00 56.71     0.032 C 
ATOM     59  CE  LYS A 299     200.325 177.138 186.782  1.00 52.70     0.206 C 
ATOM     60  NZ  LYS A 299     198.983 176.575 186.495  1.00 62.42    -0.064 N 
ATOM     61  HZ3 LYS A 299     198.267 177.301 186.508  1.00  0.00     0.275 HD
ATOM     62  HZ2 LYS A 299     198.904 176.287 185.520  1.00  0.00     0.275 HD
ATOM     63  HZ1 LYS A 299     198.746 175.810 187.126  1.00  0.00     0.275 HD
ATOM     64  CA  ARG A 126     203.924 165.784 202.144  1.00149.40     0.159 C 
ATOM     65  CB  ARG A 126     204.246 164.987 200.881  1.00133.40     0.034 C 
ATOM     66  CG  ARG A 126     205.395 165.540 200.055  1.00130.01     0.027 C 
ATOM     67  CD  ARG A 126     205.052 166.923 199.525  1.00131.26     0.116 C 
ATOM     68  NE  ARG A 126     206.079 167.458 198.636  1.00126.38    -0.212 N 
ATOM     69  CZ  ARG A 126     207.197 168.038 199.058  1.00123.75     0.666 C 
ATOM     70  NH1 ARG A 126     207.432 168.154 200.358  1.00121.38    -0.235 N 
ATOM     71  NH2 ARG A 126     208.082 168.502 198.186  1.00134.78    -0.235 N 
ATOM     72 2HH1 ARG A 126     206.751 167.798 201.029  1.00  0.00     0.174 HD
ATOM     73 1HH1 ARG A 126     208.291 168.599 200.682  1.00  0.00     0.174 HD
ATOM     74 2HH2 ARG A 126     207.901 168.413 197.187  1.00  0.00     0.174 HD
ATOM     75 1HH2 ARG A 126     208.940 168.946 198.511  1.00  0.00     0.174 HD
ATOM     76  HE  ARG A 126     205.930 167.382 197.629  1.00  0.00     0.178 HD
ATOM     77  CA  LEU A 127     201.123 168.268 202.807  1.00153.88     0.160 C 
ATOM     78  CB  LEU A 127     200.758 168.860 204.171  1.00147.20     0.032 C 
ATOM     79  CG  LEU A 127     199.458 168.408 204.839  1.00145.17     0.002 C 
ATOM     80  CD1 LEU A 127     198.257 168.791 203.980  1.00 88.14     0.000 C 
ATOM     81  CD2 LEU A 127     199.475 166.910 205.103  1.00139.20     0.000 C 
ATOM     82  CA  GLU A 156     200.026 171.816 187.502  1.00 66.36     0.160 C 
ATOM     83  CB  GLU A 156     200.353 173.154 188.166  1.00 55.62     0.043 C 
ATOM     84  CG  GLU A 156     199.559 173.540 189.387  1.00 70.57     0.100 C 
ATOM     85  CD  GLU A 156     200.012 172.754 190.612  1.00 81.66     0.185 C 
ATOM     86  OE1 GLU A 156     199.178 172.044 191.214  1.00 65.56    -0.647 OA
ATOM     87  OE2 GLU A 156     201.209 172.836 190.963  1.00 89.99    -0.647 OA
ATOM     88  CA  VAL A 157     203.226 170.537 185.857  1.00 71.99     0.159 C 
ATOM     89  CB  VAL A 157     203.064 169.542 184.685  1.00 75.94     0.029 C 
ATOM     90  CG1 VAL A 157     203.765 168.235 184.994  1.00 76.66     0.002 C 
ATOM     91  CG2 VAL A 157     201.604 169.298 184.379  1.00 67.05     0.002 C 
ATOM     92  CA  ASP A 158     206.666 172.211 185.854  1.00 94.88     0.170 C 
ATOM     93  CB  ASP A 158     206.964 172.988 187.135  1.00104.96     0.129 C 
ATOM     94  CG  ASP A 158     206.326 172.363 188.360  1.00119.19     0.188 C 
ATOM     95  OD1 ASP A 158     205.189 172.749 188.707  1.00111.95    -0.647 OA
ATOM     96  OD2 ASP A 158     206.964 171.479 188.970  1.00131.05    -0.647 OA
ATOM     97  CA  THR A 235     212.747 184.477 187.590  1.00 53.73     0.186 C 
ATOM     98  CB  THR A 235     214.055 184.661 188.369  1.00 53.83     0.140 C 
ATOM     99  CG2 THR A 235     214.331 183.463 189.249  1.00 69.14     0.034 C 
ATOM    100  OG1 THR A 235     215.139 184.827 187.444  1.00 58.73    -0.382 OA
ATOM    101  HG1 THR A 235     215.407 185.738 187.436  1.00  0.00     0.210 HD
ATOM    102  CA  PHE A 301     206.276 185.417 186.926  1.00 52.37     0.164 C 
ATOM    103  CB  PHE A 301     207.456 184.607 186.381  1.00 49.06     0.058 C 
ATOM    104  CG  PHE A 301     208.610 185.432 185.908  1.00 51.77    -0.020 A 
ATOM    105  CD1 PHE A 301     208.882 186.667 186.478  1.00 53.15    -0.004 A 
ATOM    106  CE1 PHE A 301     209.956 187.427 186.045  1.00 57.48    -0.000 A 
ATOM    107  CZ  PHE A 301     210.786 186.944 185.055  1.00 55.39    -0.000 A 
ATOM    108  CE2 PHE A 301     210.539 185.702 184.494  1.00 55.43    -0.000 A 
ATOM    109  CD2 PHE A 301     209.460 184.950 184.926  1.00 51.71    -0.004 A 
ENDMDL
REMARK VINA RESULT:      -5.9      3.124      5.011
REMARK  15 active torsions:
REMARK  status: ('A' for Active; 'I' for Inactive)
REMARK    1  A    between atoms: C_3  and  C_23 
REMARK    2  A    between atoms: C_3  and  O_18 
REMARK    3  A    between atoms: C_8  and  N_30 
REMARK    4  A    between atoms: O_12  and  C_22 
REMARK    5  A    between atoms: O_13  and  C_24 
REMARK    6  A    between atoms: O_14  and  P_34 
REMARK    7  A    between atoms: O_15  and  P_35 
REMARK    8  A    between atoms: O_16  and  P_36 
REMARK    9  A    between atoms: O_17  and  P_36 
REMARK   10  A    between atoms: O_18  and  P_34 
REMARK   11  A    between atoms: O_19  and  P_34 
REMARK   12  A    between atoms: O_19  and  P_35 
REMARK   13  A    between atoms: O_20  and  P_35 
REMARK   14  A    between atoms: O_20  and  P_36 
REMARK   15  A    between atoms: C_21  and  N_39 
REMARK  2 active torsions:
REMARK  status: ('A' for Active; 'I' for Inactive)
REMARK    1  A    between atoms: CA   and  CB  
REMARK    2  A    between atoms: CB   and  OG  
REMARK  2 active torsions:
REMARK  status: ('A' for Active; 'I' for Inactive)
REMARK    3  A    between atoms: CA   and  CB  
REMARK    4  A    between atoms: CB   and  OG  
REMARK  1 active torsions:
REMARK  status: ('A' for Active; 'I' for Inactive)
REMARK    5  A    between atoms: CA   and  CB  
REMARK  2 active torsions:
REMARK  status: ('A' for Active; 'I' for Inactive)
REMARK    6  A    between atoms: CA   and  CB  
REMARK    7  A    between atoms: CB   and  OG  
REMARK  3 active torsions:
REMARK  status: ('A' for Active; 'I' for Inactive)
REMARK    8  A    between atoms: CA   and  CB  
REMARK    9  A    between atoms: CB   and  CG  
REMARK   10  A    between atoms: CZ   and  OH  
REMARK  2 active torsions:
REMARK  status: ('A' for Active; 'I' for Inactive)
REMARK   11  A    between atoms: CA   and  CB  
REMARK   12  A    between atoms: CB   and  CG  
REMARK       I    between atoms: CG   and  ND2 
REMARK  2 active torsions:
REMARK  status: ('A' for Active; 'I' for Inactive)
REMARK   13  A    between atoms: CA   and  CB  
REMARK   14  A    between atoms: CB   and  CG  
REMARK  4 active torsions:
REMARK  status: ('A' for Active; 'I' for Inactive)
REMARK   15  A    between atoms: CA   and  CB  
REMARK   16  A    between atoms: CB   and  CG  
REMARK   17  A    between atoms: CG   and  CD  
REMARK   18  A    between atoms: CD   and  NE  
REMARK       I    between atoms: NE   and  CZ  
REMARK       I    between atoms: CZ   and  NH1 
REMARK       I    between atoms: CZ   and  NH2 
REMARK  5 active torsions:
REMARK  status: ('A' for Active; 'I' for Inactive)
REMARK   19  A    between atoms: CA   and  CB  
REMARK   20  A    between atoms: CB   and  CG  
REMARK   21  A    between atoms: CG   and  CD  
REMARK   22  A    between atoms: CD   and  CE  
REMARK   23  A    between atoms: CE   and  NZ  
REMARK  4 active torsions:
REMARK  status: ('A' for Active; 'I' for Inactive)
REMARK   24  A    between atoms: CA   and  CB  
REMARK   25  A    between atoms: CB   and  CG  
REMARK   26  A    between atoms: CG   and  CD  
REMARK   27  A    between atoms: CD   and  NE  
REMARK       I    between atoms: NE   and  CZ  
REMARK       I    between atoms: CZ   and  NH1 
REMARK       I    between atoms: CZ   and  NH2 
REMARK  2 active torsions:
REMARK  status: ('A' for Active; 'I' for Inactive)
REMARK   28  A    between atoms: CA   and  CB  
REMARK   29  A    between atoms: CB   and  CG  
REMARK  3 active torsions:
REMARK  status: ('A' for Active; 'I' for Inactive)
REMARK   30  A    between atoms: CA   and  CB  
REMARK   31  A    between atoms: CB   and  CG  
REMARK   32  A    between atoms: CG   and  CD  
REMARK  1 active torsions:
REMARK  status: ('A' for Active; 'I' for Inactive)
REMARK   33  A    between atoms: CA   and  CB  
REMARK  2 active torsions:
REMARK  status: ('A' for Active; 'I' for Inactive)
REMARK   34  A    between atoms: CA   and  CB  
REMARK   35  A    between atoms: CB   and  CG  
REMARK  2 active torsions:
REMARK  status: ('A' for Active; 'I' for Inactive)
REMARK   36  A    between atoms: CA   and  CB  
REMARK   37  A    between atoms: CB   and  OG1 
REMARK  2 active torsions:
REMARK  status: ('A' for Active; 'I' for Inactive)
REMARK   38  A    between atoms: CA   and  CB  
REMARK   39  A    between atoms: CB   and  CG  
REMARK viewdock state: V
ATOM      1  C   LIG d   1     206.743 175.920 194.865  0.00  0.00     0.203 A 
ATOM      2  C   LIG d   1     204.734 174.293 198.381  0.00  0.00     0.225 A 
ATOM      3  C   LIG d   1     203.887 174.357 196.220  0.00  0.00     0.147 A 
ATOM      4  N   LIG d   1     205.936 174.855 198.122  0.00  0.00    -0.216 NA
ATOM      5  N   LIG d   1     205.543 175.437 194.613  0.00  0.00    -0.231 NA
ATOM      6  N   LIG d   1     203.723 174.036 197.524  0.00  0.00    -0.219 NA
ATOM      7  C   LIG d   1     206.034 175.177 196.819  0.00  0.00     0.167 A 
ATOM      8  C   LIG d   1     205.089 174.969 195.828  0.00  0.00     0.147 A 
ATOM      9  N   LIG d   1     207.091 175.772 196.181  0.00  0.00    -0.285 N 
ATOM     10  C   LIG d   1     208.322 176.200 196.820  0.00  0.00     0.253 C 
ATOM     11  O   LIG d   1     208.445 177.633 196.708  0.00  0.00    -0.346 OA
ATOM     12  C   LIG d   1     209.800 177.942 196.289  0.00  0.00     0.178 C 
ATOM     13  C   LIG d   1     210.612 176.667 196.488  0.00  0.00     0.178 C 
ATOM     14  C   LIG d   1     209.582 175.599 196.181  0.00  0.00     0.195 C 
ATOM     15  C   LIG d   1     210.317 179.146 197.069  0.00  0.00     0.206 C 
ATOM     16  O   LIG d   1     210.520 180.226 196.160  0.00  0.00    -0.284 OA
ATOM     17  P   LIG d   1     209.200 180.962 195.614  0.00  0.00     0.483 P 
ATOM     18  O   LIG d   1     208.799 180.596 194.228  0.00  0.00    -0.227 OA
ATOM     19  O   LIG d   1     209.491 182.498 195.880  0.00  0.00    -0.186 OA
ATOM     20  P   LIG d   1     208.649 183.695 195.273  0.00  0.00     0.492 P 
ATOM     21  O   LIG d   1     208.921 185.067 195.776  0.00  0.00    -0.227 OA
ATOM     22  O   LIG d   1     207.146 183.188 195.404  0.00  0.00    -0.186 OA
ATOM     23  P   LIG d   1     206.291 183.465 196.705  0.00  0.00     0.481 P 
ATOM     24  O   LIG d   1     205.431 184.677 196.748  0.00  0.00    -0.227 OA
ATOM     25  O   LIG d   1     207.374 183.440 197.878  0.00  0.00    -0.302 OA
ATOM     26  H   LIG d   1     207.204 182.708 198.502  0.00  0.00     0.222 HD
ATOM     27  O   LIG d   1     205.508 182.094 196.980  0.00  0.00    -0.302 OA
ATOM     28  H   LIG d   1     205.452 181.940 197.944  0.00  0.00     0.222 HD
ATOM     29  O   LIG d   1     208.910 183.520 193.696  0.00  0.00    -0.302 OA
ATOM     30  H   LIG d   1     209.779 183.909 193.457  0.00  0.00     0.222 HD
ATOM     31  O   LIG d   1     208.138 180.579 196.751  0.00  0.00    -0.302 OA
ATOM     32  H   LIG d   1     207.329 181.122 196.707  0.00  0.00     0.222 HD
ATOM     33  O   LIG d   1     211.059 176.524 197.838  0.00  0.00    -0.386 OA
ATOM     34  H   LIG d   1     212.021 176.344 197.776  0.00  0.00     0.210 HD
ATOM     35  O   LIG d   1     209.993 174.350 196.740  0.00  0.00    -0.385 OA
ATOM     36  H   LIG d   1     209.190 173.786 196.783  0.00  0.00     0.210 HD
ATOM     37  N   LIG d   1     202.849 174.083 195.339  0.00  0.00    -0.341 NA
ATOM     38  H   LIG d   1     202.572 173.107 195.339  0.00  0.00     0.144 HD
ATOM     39  H   LIG d   1     202.986 174.529 194.442  0.00  0.00     0.144 HD
ATOM      1  CA  SER A 272     219.500 182.733 197.389  1.00 76.05     0.189 C 
ATOM      2  CB  SER A 272     218.127 183.058 197.980  1.00 67.27     0.169 C 
ATOM      3  OG  SER A 272     218.252 183.886 199.125  1.00 67.48    -0.380 OA
ATOM      4  HG  SER A 272     217.832 183.488 199.879  1.00  0.00     0.211 HD
ATOM      5  CA  SER A 273     219.476 179.341 195.712  1.00 95.92     0.189 C 
ATOM      6  CB  SER A 273     220.525 178.254 195.952  1.00101.58     0.169 C 
ATOM      7  OG  SER A 273     220.895 177.639 194.729  1.00 85.34    -0.380 OA
ATOM      8  HG  SER A 273     221.779 177.294 194.782  1.00  0.00     0.211 HD
ATOM      9  CA  VAL A 274     216.112 178.448 197.254  1.00 73.25     0.159 C 
ATOM     10  CB  VAL A 274     215.954 178.192 198.764  1.00 64.82     0.029 C 
ATOM     11  CG2 VAL A 274     217.179 178.675 199.520  1.00 83.80     0.002 C 
ATOM     12  CG1 VAL A 274     215.681 176.723 199.036  1.00 74.90     0.002 C 
ATOM     13  CA  SER A 275     214.008 181.464 196.150  1.00 63.68     0.189 C 
ATOM     14  CB  SER A 275     213.202 181.973 197.344  1.00 53.99     0.169 C 
ATOM     15  OG  SER A 275     214.028 182.197 198.473  1.00 69.59    -0.380 OA
ATOM     16  HG  SER A 275     214.024 183.111 198.732  1.00  0.00     0.211 HD
ATOM     17  CA  TYR A 278     208.988 186.676 192.328  1.00 45.93     0.164 C 
ATOM     18  CB  TYR A 278     208.875 188.200 192.364  1.00 46.39     0.058 C 
ATOM     19  CG  TYR A 278     209.004 188.808 193.742  1.00 49.20    -0.020 A 
ATOM     20  CD2 TYR A 278     209.902 188.285 194.664  1.00 46.83    -0.002 A 
ATOM     21  CE2 TYR A 278     210.028 188.825 195.927  1.00 52.67     0.024 A 
ATOM     22  CZ  TYR A 278     209.250 189.902 196.285  1.00 55.35     0.089 A 
ATOM     23  CE1 TYR A 278     208.350 190.442 195.391  1.00 55.53     0.024 A 
ATOM     24  CD1 TYR A 278     208.230 189.894 194.126  1.00 50.19    -0.002 A 
ATOM     25  OH  TYR A 278     209.375 190.442 197.542  1.00 54.18    -0.359 OA
ATOM     26  HH  TYR A 278     208.904 190.053 198.270  1.00  0.00     0.217 HD
ATOM     27  CA  ASN A 279     205.913 184.718 191.231  1.00 49.32     0.169 C 
ATOM     28  CB  ASN A 279     206.291 183.397 190.562  1.00 41.19     0.119 C 
ATOM     29  CG  ASN A 279     205.161 182.825 189.742  1.00 49.81     0.230 C 
ATOM     30  OD1 ASN A 279     205.233 182.786 188.516  1.00 57.93    -0.273 OA
ATOM     31  ND2 ASN A 279     204.107 182.380 190.411  1.00 54.39    -0.369 N 
ATOM     32 2HD2 ASN A 279     204.048 182.413 191.429  1.00  0.00     0.159 HD
ATOM     33 1HD2 ASN A 279     203.344 181.994 189.857  1.00  0.00     0.159 HD
ATOM     34  CA  PHE A 280     202.335 184.098 192.325  1.00 48.50     0.164 C 
ATOM     35  CB  PHE A 280     201.775 185.418 192.860  1.00 46.97     0.058 C 
ATOM     36  CG  PHE A 280     201.721 185.483 194.352  1.00 48.53    -0.020 A 
ATOM     37  CD2 PHE A 280     200.859 184.661 195.065  1.00 47.66    -0.004 A 
ATOM     38  CE2 PHE A 280     200.803 184.728 196.446  1.00 56.11    -0.000 A 
ATOM     39  CZ  PHE A 280     201.610 185.628 197.127  1.00 54.55    -0.000 A 
ATOM     40  CE1 PHE A 280     202.470 186.452 196.426  1.00 58.17    -0.000 A 
ATOM     41  CD1 PHE A 280     202.520 186.380 195.045  1.00 57.66    -0.004 A 
ATOM     42  CA  ARG A 281     199.282 182.045 191.372  1.00 53.90     0.159 C 
ATOM     43  CB  ARG A 281     199.250 180.605 191.908  1.00 43.93     0.034 C 
ATOM     44  CG  ARG A 281     198.606 180.480 193.284  1.00 59.82     0.027 C 
ATOM     45  CD  ARG A 281     197.344 179.632 193.241  1.00 43.25     0.116 C 
ATOM     46  NE  ARG A 281     197.445 178.500 194.157  1.00 49.00    -0.212 N 
ATOM     47  CZ  ARG A 281     196.819 178.423 195.326  1.00 62.89     0.666 C 
ATOM     48  NH1 ARG A 281     196.045 179.420 195.737  1.00 74.80    -0.235 N 
ATOM     49  NH2 ARG A 281     196.971 177.352 196.085  1.00 61.99    -0.235 N 
ATOM     50 2HH1 ARG A 281     195.928 180.247 195.151  1.00  0.00     0.174 HD
ATOM     51 1HH1 ARG A 281     195.564 179.361 196.634  1.00  0.00     0.174 HD
ATOM     52 2HH2 ARG A 281     197.566 176.586 195.769  1.00  0.00     0.174 HD
ATOM     53 1HH2 ARG A 281     196.490 177.293 196.983  1.00  0.00     0.174 HD
ATOM     54  HE  ARG A 281     198.036 177.715 193.881  1.00  0.00     0.178 HD
ATOM     55  CA  LYS A 299     201.486 180.756 187.756  1.00 49.56     0.159 C 
ATOM     56  CB  LYS A 299     202.397 179.560 188.025  1.00 54.03     0.032 C 
ATOM     57  CG  LYS A 299     201.794 178.246 187.556  1.00 58.52     0.004 C 
ATOM     58  CD  LYS A 299     200.527 177.888 188.302  1.00 56.71     0.032 C 
ATOM     59  CE  LYS A 299     199.460 177.397 187.337  1.00 52.70     0.206 C 
ATOM     60  NZ  LYS A 299     200.033 176.576 186.245  1.00 62.42    -0.064 N 
ATOM     61  HZ3 LYS A 299     201.042 176.709 186.171  1.00  0.00     0.275 HD
ATOM     62  HZ2 LYS A 299     200.018 175.584 186.481  1.00  0.00     0.275 HD
ATOM     63  HZ1 LYS A 299     199.571 176.750 185.352  1.00  0.00     0.275 HD
ATOM     64  CA  ARG A 126     203.924 165.784 202.144  1.00149.40     0.159 C 
ATOM     65  CB  ARG A 126     204.246 164.987 200.881  1.00133.40     0.034 C 
ATOM     66  CG  ARG A 126     204.465 165.829 199.636  1.00130.01     0.027 C 
ATOM     67  CD  ARG A 126     205.936 166.185 199.486  1.00131.26     0.116 C 
ATOM     68  NE  ARG A 126     206.185 167.106 198.380  1.00126.38    -0.212 N 
ATOM     69  CZ  ARG A 126     206.930 168.201 198.480  1.00123.75     0.666 C 
ATOM     70  NH1 ARG A 126     207.502 168.508 199.635  1.00121.38    -0.235 N 
ATOM     71  NH2 ARG A 126     207.106 168.989 197.429  1.00134.78    -0.235 N 
ATOM     72 2HH1 ARG A 126     207.367 167.902 200.444  1.00  0.00     0.174 HD
ATOM     73 1HH1 ARG A 126     208.075 169.349 199.712  1.00  0.00     0.174 HD
ATOM     74 2HH2 ARG A 126     206.666 168.753 196.540  1.00  0.00     0.174 HD
ATOM     75 1HH2 ARG A 126     207.679 169.830 197.506  1.00  0.00     0.174 HD
ATOM     76  HE  ARG A 126     205.761 166.895 197.476  1.00  0.00     0.178 HD
ATOM     77  CA  LEU A 127     201.123 168.268 202.807  1.00153.88     0.160 C 
ATOM     78  CB  LEU A 127     200.758 168.860 204.171  1.00147.20     0.032 C 
ATOM     79  CG  LEU A 127     199.437 168.441 204.820  1.00145.17     0.002 C 
ATOM     80  CD1 LEU A 127     198.260 168.829 203.930  1.00 88.14     0.000 C 
ATOM     81  CD2 LEU A 127     199.424 166.946 205.108  1.00139.20     0.000 C 
ATOM     82  CA  GLU A 156     200.026 171.816 187.502  1.00 66.36     0.160 C 
ATOM     83  CB  GLU A 156     200.353 173.154 188.166  1.00 55.62     0.043 C 
ATOM     84  CG  GLU A 156     199.542 173.551 189.373  1.00 70.57     0.100 C 
ATOM     85  CD  GLU A 156     200.010 172.811 190.620  1.00 81.66     0.185 C 
ATOM     86  OE1 GLU A 156     199.239 171.984 191.153  1.00 65.56    -0.647 OA
ATOM     87  OE2 GLU A 156     201.156 173.046 191.058  1.00 89.99    -0.647 OA
ATOM     88  CA  VAL A 157     203.226 170.537 185.857  1.00 71.99     0.159 C 
ATOM     89  CB  VAL A 157     203.064 169.542 184.685  1.00 75.94     0.029 C 
ATOM     90  CG1 VAL A 157     203.766 168.236 184.994  1.00 76.66     0.002 C 
ATOM     91  CG2 VAL A 157     201.604 169.297 184.380  1.00 67.05     0.002 C 
ATOM     92  CA  ASP A 158     206.666 172.211 185.854  1.00 94.88     0.170 C 
ATOM     93  CB  ASP A 158     206.964 172.988 187.135  1.00104.96     0.129 C 
ATOM     94  CG  ASP A 158     206.389 172.322 188.370  1.00119.19     0.188 C 
ATOM     95  OD1 ASP A 158     207.036 171.397 188.908  1.00111.95    -0.647 OA
ATOM     96  OD2 ASP A 158     205.292 172.731 188.803  1.00131.05    -0.647 OA
ATOM     97  CA  THR A 235     212.747 184.477 187.590  1.00 53.73     0.186 C 
ATOM     98  CB  THR A 235     214.055 184.661 188.369  1.00 53.83     0.140 C 
ATOM     99  CG2 THR A 235     214.346 183.450 189.227  1.00 69.14     0.034 C 
ATOM    100  OG1 THR A 235     215.134 184.855 187.444  1.00 58.73    -0.382 OA
ATOM    101  HG1 THR A 235     215.131 184.150 186.807  1.00  0.00     0.210 HD
ATOM    102  CA  PHE A 301     206.276 185.417 186.926  1.00 52.37     0.164 C 
ATOM    103  CB  PHE A 301     207.456 184.607 186.381  1.00 49.06     0.058 C 
ATOM    104  CG  PHE A 301     208.450 184.185 187.415  1.00 51.77    -0.020 A 
ATOM    105  CD1 PHE A 301     208.352 184.640 188.722  1.00 53.15    -0.004 A 
ATOM    106  CE1 PHE A 301     209.270 184.242 189.682  1.00 57.48    -0.000 A 
ATOM    107  CZ  PHE A 301     210.277 183.362 189.348  1.00 55.39    -0.000 A 
ATOM    108  CE2 PHE A 301     210.371 182.882 188.052  1.00 55.43    -0.000 A 
ATOM    109  CD2 PHE A 301     209.456 183.288 187.095  1.00 51.71    -0.004 A 
ENDMDL
REMARK VINA RESULT:      -5.8      2.741      3.971
REMARK  15 active torsions:
REMARK  status: ('A' for Active; 'I' for Inactive)
REMARK    1  A    between atoms: C_3  and  C_23 
REMARK    2  A    between atoms: C_3  and  O_18 
REMARK    3  A    between atoms: C_8  and  N_30 
REMARK    4  A    between atoms: O_12  and  C_22 
REMARK    5  A    between atoms: O_13  and  C_24 
REMARK    6  A    between atoms: O_14  and  P_34 
REMARK    7  A    between atoms: O_15  and  P_35 
REMARK    8  A    between atoms: O_16  and  P_36 
REMARK    9  A    between atoms: O_17  and  P_36 
REMARK   10  A    between atoms: O_18  and  P_34 
REMARK   11  A    between atoms: O_19  and  P_34 
REMARK   12  A    between atoms: O_19  and  P_35 
REMARK   13  A    between atoms: O_20  and  P_35 
REMARK   14  A    between atoms: O_20  and  P_36 
REMARK   15  A    between atoms: C_21  and  N_39 
REMARK  2 active torsions:
REMARK  status: ('A' for Active; 'I' for Inactive)
REMARK    1  A    between atoms: CA   and  CB  
REMARK    2  A    between atoms: CB   and  OG  
REMARK  2 active torsions:
REMARK  status: ('A' for Active; 'I' for Inactive)
REMARK    3  A    between atoms: CA   and  CB  
REMARK    4  A    between atoms: CB   and  OG  
REMARK  1 active torsions:
REMARK  status: ('A' for Active; 'I' for Inactive)
REMARK    5  A    between atoms: CA   and  CB  
REMARK  2 active torsions:
REMARK  status: ('A' for Active; 'I' for Inactive)
REMARK    6  A    between atoms: CA   and  CB  
REMARK    7  A    between atoms: CB   and  OG  
REMARK  3 active torsions:
REMARK  status: ('A' for Active; 'I' for Inactive)
REMARK    8  A    between atoms: CA   and  CB  
REMARK    9  A    between atoms: CB   and  CG  
REMARK   10  A    between atoms: CZ   and  OH  
REMARK  2 active torsions:
REMARK  status: ('A' for Active; 'I' for Inactive)
REMARK   11  A    between atoms: CA   and  CB  
REMARK   12  A    between atoms: CB   and  CG  
REMARK       I    between atoms: CG   and  ND2 
REMARK  2 active torsions:
REMARK  status: ('A' for Active; 'I' for Inactive)
REMARK   13  A    between atoms: CA   and  CB  
REMARK   14  A    between atoms: CB   and  CG  
REMARK  4 active torsions:
REMARK  status: ('A' for Active; 'I' for Inactive)
REMARK   15  A    between atoms: CA   and  CB  
REMARK   16  A    between atoms: CB   and  CG  
REMARK   17  A    between atoms: CG   and  CD  
REMARK   18  A    between atoms: CD   and  NE  
REMARK       I    between atoms: NE   and  CZ  
REMARK       I    between atoms: CZ   and  NH1 
REMARK       I    between atoms: CZ   and  NH2 
REMARK  5 active torsions:
REMARK  status: ('A' for Active; 'I' for Inactive)
REMARK   19  A    between atoms: CA   and  CB  
REMARK   20  A    between atoms: CB   and  CG  
REMARK   21  A    between atoms: CG   and  CD  
REMARK   22  A    between atoms: CD   and  CE  
REMARK   23  A    between atoms: CE   and  NZ  
REMARK  4 active torsions:
REMARK  status: ('A' for Active; 'I' for Inactive)
REMARK   24  A    between atoms: CA   and  CB  
REMARK   25  A    between atoms: CB   and  CG  
REMARK   26  A    between atoms: CG   and  CD  
REMARK   27  A    between atoms: CD   and  NE  
REMARK       I    between atoms: NE   and  CZ  
REMARK       I    between atoms: CZ   and  NH1 
REMARK       I    between atoms: CZ   and  NH2 
REMARK  2 active torsions:
REMARK  status: ('A' for Active; 'I' for Inactive)
REMARK   28  A    between atoms: CA   and  CB  
REMARK   29  A    between atoms: CB   and  CG  
REMARK  3 active torsions:
REMARK  status: ('A' for Active; 'I' for Inactive)
REMARK   30  A    between atoms: CA   and  CB  
REMARK   31  A    between atoms: CB   and  CG  
REMARK   32  A    between atoms: CG   and  CD  
REMARK  1 active torsions:
REMARK  status: ('A' for Active; 'I' for Inactive)
REMARK   33  A    between atoms: CA   and  CB  
REMARK  2 active torsions:
REMARK  status: ('A' for Active; 'I' for Inactive)
REMARK   34  A    between atoms: CA   and  CB  
REMARK   35  A    between atoms: CB   and  CG  
REMARK  2 active torsions:
REMARK  status: ('A' for Active; 'I' for Inactive)
REMARK   36  A    between atoms: CA   and  CB  
REMARK   37  A    between atoms: CB   and  OG1 
REMARK  2 active torsions:
REMARK  status: ('A' for Active; 'I' for Inactive)
REMARK   38  A    between atoms: CA   and  CB  
REMARK   39  A    between atoms: CB   and  CG  
REMARK viewdock state: V
ATOM      1  C   LIG d   1     207.122 177.691 194.159  0.00  0.00     0.203 A 
ATOM      2  C   LIG d   1     211.203 176.162 193.915  0.00  0.00     0.225 A 
ATOM      3  C   LIG d   1     209.309 175.182 192.995  0.00  0.00     0.147 A 
ATOM      4  N   LIG d   1     210.603 177.251 194.445  0.00  0.00    -0.216 NA
ATOM      5  N   LIG d   1     207.224 176.561 193.490  0.00  0.00    -0.231 NA
ATOM      6  N   LIG d   1     210.643 175.147 193.222  0.00  0.00    -0.219 NA
ATOM      7  C   LIG d   1     209.278 177.221 194.212  0.00  0.00     0.167 A 
ATOM      8  C   LIG d   1     208.569 176.255 193.516  0.00  0.00     0.147 A 
ATOM      9  N   LIG d   1     208.338 178.139 194.602  0.00  0.00    -0.285 N 
ATOM     10  C   LIG d   1     208.606 179.332 195.384  0.00  0.00     0.253 C 
ATOM     11  O   LIG d   1     207.356 179.941 195.769  0.00  0.00    -0.346 OA
ATOM     12  C   LIG d   1     207.449 181.368 195.520  0.00  0.00     0.178 C 
ATOM     13  C   LIG d   1     208.927 181.669 195.296  0.00  0.00     0.178 C 
ATOM     14  C   LIG d   1     209.397 180.399 194.615  0.00  0.00     0.195 C 
ATOM     15  C   LIG d   1     206.818 182.135 196.677  0.00  0.00     0.206 C 
ATOM     16  O   LIG d   1     206.399 183.412 196.203  0.00  0.00    -0.284 OA
ATOM     17  P   LIG d   1     206.584 184.648 197.213  0.00  0.00     0.483 P 
ATOM     18  O   LIG d   1     206.480 185.996 196.589  0.00  0.00    -0.227 OA
ATOM     19  O   LIG d   1     207.944 184.322 197.959  0.00  0.00    -0.186 OA
ATOM     20  P   LIG d   1     209.331 185.028 197.658  0.00  0.00     0.492 P 
ATOM     21  O   LIG d   1     209.922 184.860 196.303  0.00  0.00    -0.227 OA
ATOM     22  O   LIG d   1     210.244 184.575 198.880  0.00  0.00    -0.186 OA
ATOM     23  P   LIG d   1     211.636 185.267 199.173  0.00  0.00     0.481 P 
ATOM     24  O   LIG d   1     212.724 184.453 199.774  0.00  0.00    -0.227 OA
ATOM     25  O   LIG d   1     211.244 186.527 200.073  0.00  0.00    -0.302 OA
ATOM     26  H   LIG d   1     210.302 186.503 200.327  0.00  0.00     0.222 HD
ATOM     27  O   LIG d   1     212.034 185.985 197.797  0.00  0.00    -0.302 OA
ATOM     28  H   LIG d   1     212.984 186.215 197.814  0.00  0.00     0.222 HD
ATOM     29  O   LIG d   1     209.017 186.557 198.042  0.00  0.00    -0.302 OA
ATOM     30  H   LIG d   1     208.065 186.655 198.265  0.00  0.00     0.222 HD
ATOM     31  O   LIG d   1     205.465 184.322 198.312  0.00  0.00    -0.302 OA
ATOM     32  H   LIG d   1     205.159 185.118 198.784  0.00  0.00     0.222 HD
ATOM     33  O   LIG d   1     209.630 181.835 196.530  0.00  0.00    -0.386 OA
ATOM     34  H   LIG d   1     210.510 182.190 196.281  0.00  0.00     0.210 HD
ATOM     35  O   LIG d   1     210.816 180.282 194.728  0.00  0.00    -0.385 OA
ATOM     36  H   LIG d   1     211.192 181.137 194.419  0.00  0.00     0.210 HD
ATOM     37  N   LIG d   1     208.738 174.141 192.274  0.00  0.00    -0.341 NA
ATOM     38  H   LIG d   1     207.753 174.286 192.076  0.00  0.00     0.144 HD
ATOM     39  H   LIG d   1     209.012 173.236 192.633  0.00  0.00     0.144 HD
ATOM      1  CA  SER A 272     219.500 182.733 197.389  1.00 76.05     0.189 C 
ATOM      2  CB  SER A 272     218.127 183.058 197.980  1.00 67.27     0.169 C 
ATOM      3  OG  SER A 272     218.255 183.839 199.158  1.00 67.48    -0.380 OA
ATOM      4  HG  SER A 272     218.570 184.712 198.953  1.00  0.00     0.211 HD
ATOM      5  CA  SER A 273     219.476 179.341 195.712  1.00 95.92     0.189 C 
ATOM      6  CB  SER A 273     220.525 178.254 195.952  1.00101.58     0.169 C 
ATOM      7  OG  SER A 273     221.107 177.842 194.726  1.00 85.34    -0.380 OA
ATOM      8  HG  SER A 273     222.015 178.119 194.677  1.00  0.00     0.211 HD
ATOM      9  CA  VAL A 274     216.112 178.448 197.254  1.00 73.25     0.159 C 
ATOM     10  CB  VAL A 274     215.954 178.192 198.764  1.00 64.82     0.029 C 
ATOM     11  CG2 VAL A 274     217.178 178.678 199.520  1.00 83.80     0.002 C 
ATOM     12  CG1 VAL A 274     215.684 176.723 199.036  1.00 74.90     0.002 C 
ATOM     13  CA  SER A 275     214.008 181.464 196.150  1.00 63.68     0.189 C 
ATOM     14  CB  SER A 275     213.202 181.973 197.344  1.00 53.99     0.169 C 
ATOM     15  OG  SER A 275     214.022 182.162 198.484  1.00 69.59    -0.380 OA
ATOM     16  HG  SER A 275     214.118 181.359 198.981  1.00  0.00     0.211 HD
ATOM     17  CA  TYR A 278     208.988 186.676 192.328  1.00 45.93     0.164 C 
ATOM     18  CB  TYR A 278     208.875 188.200 192.364  1.00 46.39     0.058 C 
ATOM     19  CG  TYR A 278     208.993 188.807 193.743  1.00 49.20    -0.020 A 
ATOM     20  CD2 TYR A 278     210.012 188.414 194.603  1.00 46.83    -0.002 A 
ATOM     21  CE2 TYR A 278     210.130 188.955 195.866  1.00 52.67     0.024 A 
ATOM     22  CZ  TYR A 278     209.225 189.902 196.288  1.00 55.35     0.089 A 
ATOM     23  CE1 TYR A 278     208.204 190.310 195.456  1.00 55.53     0.024 A 
ATOM     24  CD1 TYR A 278     208.092 189.763 194.190  1.00 50.19    -0.002 A 
ATOM     25  OH  TYR A 278     209.343 190.442 197.545  1.00 54.18    -0.359 OA
ATOM     26  HH  TYR A 278     209.617 191.347 197.644  1.00  0.00     0.217 HD
ATOM     27  CA  ASN A 279     205.913 184.718 191.231  1.00 49.32     0.169 C 
ATOM     28  CB  ASN A 279     206.291 183.397 190.562  1.00 41.19     0.119 C 
ATOM     29  CG  ASN A 279     205.148 182.804 189.776  1.00 49.81     0.230 C 
ATOM     30  OD1 ASN A 279     205.134 182.861 188.549  1.00 57.93    -0.273 OA
ATOM     31  ND2 ASN A 279     204.178 182.233 190.476  1.00 54.39    -0.369 N 
ATOM     32 2HD2 ASN A 279     204.190 182.187 191.495  1.00  0.00     0.159 HD
ATOM     33 1HD2 ASN A 279     203.406 181.833 189.945  1.00  0.00     0.159 HD
ATOM     34  CA  PHE A 280     202.335 184.098 192.325  1.00 48.50     0.164 C 
ATOM     35  CB  PHE A 280     201.775 185.418 192.860  1.00 46.97     0.058 C 
ATOM     36  CG  PHE A 280     201.770 185.503 194.352  1.00 48.53    -0.020 A 
ATOM     37  CD2 PHE A 280     200.850 184.781 195.099  1.00 47.66    -0.004 A 
ATOM     38  CE2 PHE A 280     200.841 184.867 196.480  1.00 56.11    -0.000 A 
ATOM     39  CZ  PHE A 280     201.753 185.688 197.127  1.00 54.55    -0.000 A 
ATOM     40  CE1 PHE A 280     202.670 186.414 196.392  1.00 58.17    -0.000 A 
ATOM     41  CD1 PHE A 280     202.674 186.323 195.011  1.00 57.66    -0.004 A 
ATOM     42  CA  ARG A 281     199.282 182.045 191.372  1.00 53.90     0.159 C 
ATOM     43  CB  ARG A 281     199.250 180.605 191.908  1.00 43.93     0.034 C 
ATOM     44  CG  ARG A 281     199.912 180.447 193.272  1.00 59.82     0.027 C 
ATOM     45  CD  ARG A 281     198.897 180.125 194.357  1.00 43.25     0.116 C 
ATOM     46  NE  ARG A 281     197.805 181.094 194.355  1.00 49.00    -0.212 N 
ATOM     47  CZ  ARG A 281     197.001 181.319 195.387  1.00 62.89     0.666 C 
ATOM     48  NH1 ARG A 281     197.154 180.638 196.516  1.00 74.80    -0.235 N 
ATOM     49  NH2 ARG A 281     196.040 182.222 195.289  1.00 61.99    -0.235 N 
ATOM     50 2HH1 ARG A 281     197.895 179.941 196.592  1.00  0.00     0.174 HD
ATOM     51 1HH1 ARG A 281     196.536 180.811 197.309  1.00  0.00     0.174 HD
ATOM     52 2HH2 ARG A 281     195.922 182.745 194.421  1.00  0.00     0.174 HD
ATOM     53 1HH2 ARG A 281     195.422 182.395 196.082  1.00  0.00     0.174 HD
ATOM     54  HE  ARG A 281     197.650 181.634 193.503  1.00  0.00     0.178 HD
ATOM     55  CA  LYS A 299     201.486 180.756 187.756  1.00 49.56     0.159 C 
ATOM     56  CB  LYS A 299     202.397 179.560 188.025  1.00 54.03     0.032 C 
ATOM     57  CG  LYS A 299     201.622 178.277 188.281  1.00 58.52     0.004 C 
ATOM     58  CD  LYS A 299     201.022 177.699 187.017  1.00 56.71     0.032 C 
ATOM     59  CE  LYS A 299     199.553 177.369 187.227  1.00 52.70     0.206 C 
ATOM     60  NZ  LYS A 299     199.082 176.312 186.301  1.00 62.42    -0.064 N 
ATOM     61  HZ3 LYS A 299     198.827 175.463 186.807  1.00  0.00     0.275 HD
ATOM     62  HZ2 LYS A 299     198.170 176.544 185.907  1.00  0.00     0.275 HD
ATOM     63  HZ1 LYS A 299     199.762 176.114 185.567  1.00  0.00     0.275 HD
ATOM     64  CA  ARG A 126     203.924 165.784 202.144  1.00149.40     0.159 C 
ATOM     65  CB  ARG A 126     204.246 164.987 200.881  1.00133.40     0.034 C 
ATOM     66  CG  ARG A 126     204.975 165.771 199.802  1.00130.01     0.027 C 
ATOM     67  CD  ARG A 126     206.156 166.521 200.397  1.00131.26     0.116 C 
ATOM     68  NE  ARG A 126     207.440 166.044 199.890  1.00126.38    -0.212 N 
ATOM     69  CZ  ARG A 126     208.148 166.670 198.956  1.00123.75     0.666 C 
ATOM     70  NH1 ARG A 126     207.696 167.799 198.430  1.00121.38    -0.235 N 
ATOM     71  NH2 ARG A 126     209.306 166.170 198.547  1.00134.78    -0.235 N 
ATOM     72 2HH1 ARG A 126     206.805 168.183 198.744  1.00  0.00     0.174 HD
ATOM     73 1HH1 ARG A 126     208.240 168.280 197.713  1.00  0.00     0.174 HD
ATOM     74 2HH2 ARG A 126     209.653 165.301 198.951  1.00  0.00     0.174 HD
ATOM     75 1HH2 ARG A 126     209.849 166.651 197.829  1.00  0.00     0.174 HD
ATOM     76  HE  ARG A 126     207.817 165.178 200.278  1.00  0.00     0.178 HD
ATOM     77  CA  LEU A 127     201.123 168.268 202.807  1.00153.88     0.160 C 
ATOM     78  CB  LEU A 127     200.758 168.860 204.171  1.00147.20     0.032 C 
ATOM     79  CG  LEU A 127     199.422 168.465 204.805  1.00145.17     0.002 C 
ATOM     80  CD1 LEU A 127     198.276 168.713 203.830  1.00 88.14     0.000 C 
ATOM     81  CD2 LEU A 127     199.443 167.011 205.253  1.00139.20     0.000 C 
ATOM     82  CA  GLU A 156     200.026 171.816 187.502  1.00 66.36     0.160 C 
ATOM     83  CB  GLU A 156     200.353 173.154 188.166  1.00 55.62     0.043 C 
ATOM     84  CG  GLU A 156     199.321 173.745 189.092  1.00 70.57     0.100 C 
ATOM     85  CD  GLU A 156     199.505 173.241 190.518  1.00 81.66     0.185 C 
ATOM     86  OE1 GLU A 156     200.409 173.744 191.221  1.00 65.56    -0.647 OA
ATOM     87  OE2 GLU A 156     198.737 172.351 190.940  1.00 89.99    -0.647 OA
ATOM     88  CA  VAL A 157     203.226 170.537 185.857  1.00 71.99     0.159 C 
ATOM     89  CB  VAL A 157     203.064 169.542 184.685  1.00 75.94     0.029 C 
ATOM     90  CG1 VAL A 157     203.761 168.233 184.996  1.00 76.66     0.002 C 
ATOM     91  CG2 VAL A 157     201.604 169.302 184.376  1.00 67.05     0.002 C 
ATOM     92  CA  ASP A 158     206.666 172.211 185.854  1.00 94.88     0.170 C 
ATOM     93  CB  ASP A 158     206.964 172.988 187.135  1.00104.96     0.129 C 
ATOM     94  CG  ASP A 158     206.287 172.390 188.352  1.00119.19     0.188 C 
ATOM     95  OD1 ASP A 158     206.892 171.510 189.003  1.00111.95    -0.647 OA
ATOM     96  OD2 ASP A 158     205.151 172.807 188.660  1.00131.05    -0.647 OA
ATOM     97  CA  THR A 235     212.747 184.477 187.590  1.00 53.73     0.186 C 
ATOM     98  CB  THR A 235     214.055 184.661 188.369  1.00 53.83     0.140 C 
ATOM     99  CG2 THR A 235     214.346 183.450 189.227  1.00 69.14     0.034 C 
ATOM    100  OG1 THR A 235     215.135 184.854 187.444  1.00 58.73    -0.382 OA
ATOM    101  HG1 THR A 235     215.177 185.771 187.199  1.00  0.00     0.210 HD
ATOM    102  CA  PHE A 301     206.276 185.417 186.926  1.00 52.37     0.164 C 
ATOM    103  CB  PHE A 301     207.456 184.607 186.381  1.00 49.06     0.058 C 
ATOM    104  CG  PHE A 301     208.582 185.432 185.845  1.00 51.77    -0.020 A 
ATOM    105  CD1 PHE A 301     209.174 185.122 184.629  1.00 53.15    -0.004 A 
ATOM    106  CE1 PHE A 301     210.212 185.892 184.129  1.00 57.48    -0.000 A 
ATOM    107  CZ  PHE A 301     210.647 186.998 184.828  1.00 55.39    -0.000 A 
ATOM    108  CE2 PHE A 301     210.047 187.332 186.031  1.00 55.43    -0.000 A 
ATOM    109  CD2 PHE A 301     209.016 186.555 186.530  1.00 51.71    -0.004 A 
ENDMDL
REMARK VINA RESULT:      -5.7      3.552      5.659
REMARK  15 active torsions:
REMARK  status: ('A' for Active; 'I' for Inactive)
REMARK    1  A    between atoms: C_3  and  C_23 
REMARK    2  A    between atoms: C_3  and  O_18 
REMARK    3  A    between atoms: C_8  and  N_30 
REMARK    4  A    between atoms: O_12  and  C_22 
REMARK    5  A    between atoms: O_13  and  C_24 
REMARK    6  A    between atoms: O_14  and  P_34 
REMARK    7  A    between atoms: O_15  and  P_35 
REMARK    8  A    between atoms: O_16  and  P_36 
REMARK    9  A    between atoms: O_17  and  P_36 
REMARK   10  A    between atoms: O_18  and  P_34 
REMARK   11  A    between atoms: O_19  and  P_34 
REMARK   12  A    between atoms: O_19  and  P_35 
REMARK   13  A    between atoms: O_20  and  P_35 
REMARK   14  A    between atoms: O_20  and  P_36 
REMARK   15  A    between atoms: C_21  and  N_39 
REMARK  2 active torsions:
REMARK  status: ('A' for Active; 'I' for Inactive)
REMARK    1  A    between atoms: CA   and  CB  
REMARK    2  A    between atoms: CB   and  OG  
REMARK  2 active torsions:
REMARK  status: ('A' for Active; 'I' for Inactive)
REMARK    3  A    between atoms: CA   and  CB  
REMARK    4  A    between atoms: CB   and  OG  
REMARK  1 active torsions:
REMARK  status: ('A' for Active; 'I' for Inactive)
REMARK    5  A    between atoms: CA   and  CB  
REMARK  2 active torsions:
REMARK  status: ('A' for Active; 'I' for Inactive)
REMARK    6  A    between atoms: CA   and  CB  
REMARK    7  A    between atoms: CB   and  OG  
REMARK  3 active torsions:
REMARK  status: ('A' for Active; 'I' for Inactive)
REMARK    8  A    between atoms: CA   and  CB  
REMARK    9  A    between atoms: CB   and  CG  
REMARK   10  A    between atoms: CZ   and  OH  
REMARK  2 active torsions:
REMARK  status: ('A' for Active; 'I' for Inactive)
REMARK   11  A    between atoms: CA   and  CB  
REMARK   12  A    between atoms: CB   and  CG  
REMARK       I    between atoms: CG   and  ND2 
REMARK  2 active torsions:
REMARK  status: ('A' for Active; 'I' for Inactive)
REMARK   13  A    between atoms: CA   and  CB  
REMARK   14  A    between atoms: CB   and  CG  
REMARK  4 active torsions:
REMARK  status: ('A' for Active; 'I' for Inactive)
REMARK   15  A    between atoms: CA   and  CB  
REMARK   16  A    between atoms: CB   and  CG  
REMARK   17  A    between atoms: CG   and  CD  
REMARK   18  A    between atoms: CD   and  NE  
REMARK       I    between atoms: NE   and  CZ  
REMARK       I    between atoms: CZ   and  NH1 
REMARK       I    between atoms: CZ   and  NH2 
REMARK  5 active torsions:
REMARK  status: ('A' for Active; 'I' for Inactive)
REMARK   19  A    between atoms: CA   and  CB  
REMARK   20  A    between atoms: CB   and  CG  
REMARK   21  A    between atoms: CG   and  CD  
REMARK   22  A    between atoms: CD   and  CE  
REMARK   23  A    between atoms: CE   and  NZ  
REMARK  4 active torsions:
REMARK  status: ('A' for Active; 'I' for Inactive)
REMARK   24  A    between atoms: CA   and  CB  
REMARK   25  A    between atoms: CB   and  CG  
REMARK   26  A    between atoms: CG   and  CD  
REMARK   27  A    between atoms: CD   and  NE  
REMARK       I    between atoms: NE   and  CZ  
REMARK       I    between atoms: CZ   and  NH1 
REMARK       I    between atoms: CZ   and  NH2 
REMARK  2 active torsions:
REMARK  status: ('A' for Active; 'I' for Inactive)
REMARK   28  A    between atoms: CA   and  CB  
REMARK   29  A    between atoms: CB   and  CG  
REMARK  3 active torsions:
REMARK  status: ('A' for Active; 'I' for Inactive)
REMARK   30  A    between atoms: CA   and  CB  
REMARK   31  A    between atoms: CB   and  CG  
REMARK   32  A    between atoms: CG   and  CD  
REMARK  1 active torsions:
REMARK  status: ('A' for Active; 'I' for Inactive)
REMARK   33  A    between atoms: CA   and  CB  
REMARK  2 active torsions:
REMARK  status: ('A' for Active; 'I' for Inactive)
REMARK   34  A    between atoms: CA   and  CB  
REMARK   35  A    between atoms: CB   and  CG  
REMARK  2 active torsions:
REMARK  status: ('A' for Active; 'I' for Inactive)
REMARK   36  A    between atoms: CA   and  CB  
REMARK   37  A    between atoms: CB   and  OG1 
REMARK  2 active torsions:
REMARK  status: ('A' for Active; 'I' for Inactive)
REMARK   38  A    between atoms: CA   and  CB  
REMARK   39  A    between atoms: CB   and  CG  
REMARK viewdock state: V
ATOM      1  C   LIG d   1     208.001 178.529 197.825  0.00  0.00     0.203 A 
ATOM      2  C   LIG d   1     209.632 181.029 194.641  0.00  0.00     0.225 A 
ATOM      3  C   LIG d   1     209.362 181.638 196.865  0.00  0.00     0.147 A 
ATOM      4  N   LIG d   1     209.173 179.762 194.743  0.00  0.00    -0.216 NA
ATOM      5  N   LIG d   1     208.351 179.734 198.225  0.00  0.00    -0.231 NA
ATOM      6  N   LIG d   1     209.741 181.965 195.608  0.00  0.00    -0.219 NA
ATOM      7  C   LIG d   1     208.786 179.500 196.005  0.00  0.00     0.167 A 
ATOM      8  C   LIG d   1     208.845 180.352 197.096  0.00  0.00     0.147 A 
ATOM      9  N   LIG d   1     208.259 178.334 196.494  0.00  0.00    -0.285 N 
ATOM     10  C   LIG d   1     207.988 177.143 195.710  0.00  0.00     0.253 C 
ATOM     11  O   LIG d   1     209.117 176.865 194.857  0.00  0.00    -0.346 OA
ATOM     12  C   LIG d   1     208.621 176.568 193.526  0.00  0.00     0.178 C 
ATOM     13  C   LIG d   1     207.123 176.326 193.671  0.00  0.00     0.178 C 
ATOM     14  C   LIG d   1     206.766 177.284 194.791  0.00  0.00     0.195 C 
ATOM     15  C   LIG d   1     209.395 175.393 192.939  0.00  0.00     0.206 C 
ATOM     16  O   LIG d   1     209.825 174.551 194.006  0.00  0.00    -0.284 OA
ATOM     17  P   LIG d   1     210.032 172.996 193.654  0.00  0.00     0.483 P 
ATOM     18  O   LIG d   1     209.455 172.561 192.352  0.00  0.00    -0.227 OA
ATOM     19  O   LIG d   1     209.500 172.246 194.945  0.00  0.00    -0.186 OA
ATOM     20  P   LIG d   1     208.048 171.629 195.097  0.00  0.00     0.492 P 
ATOM     21  O   LIG d   1     206.954 172.206 194.272  0.00  0.00    -0.227 OA
ATOM     22  O   LIG d   1     207.813 171.632 196.671  0.00  0.00    -0.186 OA
ATOM     23  P   LIG d   1     206.837 170.598 197.363  0.00  0.00     0.481 P 
ATOM     24  O   LIG d   1     206.680 169.251 196.757  0.00  0.00    -0.227 OA
ATOM     25  O   LIG d   1     205.455 171.393 197.458  0.00  0.00    -0.302 OA
ATOM     26  H   LIG d   1     205.521 172.271 197.035  0.00  0.00     0.222 HD
ATOM     27  O   LIG d   1     207.286 170.579 198.901  0.00  0.00    -0.302 OA
ATOM     28  H   LIG d   1     207.075 171.441 199.312  0.00  0.00     0.222 HD
ATOM     29  O   LIG d   1     208.318 170.069 194.816  0.00  0.00    -0.302 OA
ATOM     30  H   LIG d   1     208.855 169.966 194.001  0.00  0.00     0.222 HD
ATOM     31  O   LIG d   1     211.624 172.860 193.770  0.00  0.00    -0.302 OA
ATOM     32  H   LIG d   1     211.914 171.937 193.891  0.00  0.00     0.222 HD
ATOM     33  O   LIG d   1     206.836 174.987 194.080  0.00  0.00    -0.386 OA
ATOM     34  H   LIG d   1     205.870 174.877 193.950  0.00  0.00     0.210 HD
ATOM     35  O   LIG d   1     205.527 176.897 195.386  0.00  0.00    -0.385 OA
ATOM     36  H   LIG d   1     204.872 176.840 194.656  0.00  0.00     0.210 HD
ATOM     37  N   LIG d   1     209.483 182.599 197.860  0.00  0.00    -0.341 NA
ATOM     38  H   LIG d   1     208.773 182.520 198.581  0.00  0.00     0.144 HD
ATOM     39  H   LIG d   1     209.660 183.519 197.479  0.00  0.00     0.144 HD
ATOM      1  CA  SER A 272     219.500 182.733 197.389  1.00 76.05     0.189 C 
ATOM      2  CB  SER A 272     218.127 183.058 197.980  1.00 67.27     0.169 C 
ATOM      3  OG  SER A 272     218.257 183.717 199.230  1.00 67.48    -0.380 OA
ATOM      4  HG  SER A 272     218.196 184.659 199.124  1.00  0.00     0.211 HD
ATOM      5  CA  SER A 273     219.476 179.341 195.712  1.00 95.92     0.189 C 
ATOM      6  CB  SER A 273     220.525 178.254 195.952  1.00101.58     0.169 C 
ATOM      7  OG  SER A 273     221.132 177.867 194.730  1.00 85.34    -0.380 OA
ATOM      8  HG  SER A 273     222.079 177.879 194.808  1.00  0.00     0.211 HD
ATOM      9  CA  VAL A 274     216.112 178.448 197.254  1.00 73.25     0.159 C 
ATOM     10  CB  VAL A 274     215.954 178.192 198.764  1.00 64.82     0.029 C 
ATOM     11  CG2 VAL A 274     217.180 178.674 199.520  1.00 83.80     0.002 C 
ATOM     12  CG1 VAL A 274     215.680 176.724 199.036  1.00 74.90     0.002 C 
ATOM     13  CA  SER A 275     214.008 181.464 196.150  1.00 63.68     0.189 C 
ATOM     14  CB  SER A 275     213.202 181.973 197.344  1.00 53.99     0.169 C 
ATOM     15  OG  SER A 275     213.075 180.981 198.348  1.00 69.59    -0.380 OA
ATOM     16  HG  SER A 275     212.291 181.108 198.867  1.00  0.00     0.211 HD
ATOM     17  CA  TYR A 278     208.988 186.676 192.328  1.00 45.93     0.164 C 
ATOM     18  CB  TYR A 278     208.875 188.200 192.364  1.00 46.39     0.058 C 
ATOM     19  CG  TYR A 278     209.002 188.808 193.742  1.00 49.20    -0.020 A 
ATOM     20  CD2 TYR A 278     209.899 188.284 194.665  1.00 46.83    -0.002 A 
ATOM     21  CE2 TYR A 278     210.023 188.824 195.928  1.00 52.67     0.024 A 
ATOM     22  CZ  TYR A 278     209.246 189.902 196.286  1.00 55.35     0.089 A 
ATOM     23  CE1 TYR A 278     208.347 190.442 195.390  1.00 55.53     0.024 A 
ATOM     24  CD1 TYR A 278     208.228 189.895 194.125  1.00 50.19    -0.002 A 
ATOM     25  OH  TYR A 278     209.369 190.442 197.543  1.00 54.18    -0.359 OA
ATOM     26  HH  TYR A 278     208.703 190.266 198.198  1.00  0.00     0.217 HD
ATOM     27  CA  ASN A 279     205.913 184.718 191.231  1.00 49.32     0.169 C 
ATOM     28  CB  ASN A 279     206.291 183.397 190.562  1.00 41.19     0.119 C 
ATOM     29  CG  ASN A 279     205.100 182.702 189.951  1.00 49.81     0.230 C 
ATOM     30  OD1 ASN A 279     204.217 182.228 190.661  1.00 57.93    -0.273 OA
ATOM     31  ND2 ASN A 279     205.067 182.633 188.627  1.00 54.39    -0.369 N 
ATOM     32 2HD2 ASN A 279     205.800 183.027 188.038  1.00  0.00     0.159 HD
ATOM     33 1HD2 ASN A 279     204.262 182.163 188.214  1.00  0.00     0.159 HD
ATOM     34  CA  PHE A 280     202.335 184.098 192.325  1.00 48.50     0.164 C 
ATOM     35  CB  PHE A 280     201.775 185.418 192.860  1.00 46.97     0.058 C 
ATOM     36  CG  PHE A 280     201.820 185.526 194.350  1.00 48.53    -0.020 A 
ATOM     37  CD2 PHE A 280     202.674 186.428 194.968  1.00 47.66    -0.004 A 
ATOM     38  CE2 PHE A 280     202.722 186.521 196.348  1.00 56.11    -0.000 A 
ATOM     39  CZ  PHE A 280     201.915 185.701 197.124  1.00 54.55    -0.000 A 
ATOM     40  CE1 PHE A 280     201.065 184.797 196.517  1.00 58.17    -0.000 A 
ATOM     41  CD1 PHE A 280     201.022 184.709 195.137  1.00 57.66    -0.004 A 
ATOM     42  CA  ARG A 281     199.282 182.045 191.372  1.00 53.90     0.159 C 
ATOM     43  CB  ARG A 281     199.250 180.605 191.908  1.00 43.93     0.034 C 
ATOM     44  CG  ARG A 281     198.064 180.320 192.822  1.00 59.82     0.027 C 
ATOM     45  CD  ARG A 281     198.473 180.297 194.286  1.00 43.25     0.116 C 
ATOM     46  NE  ARG A 281     197.920 181.443 195.001  1.00 49.00    -0.212 N 
ATOM     47  CZ  ARG A 281     198.452 181.970 196.099  1.00 62.89     0.666 C 
ATOM     48  NH1 ARG A 281     199.555 181.451 196.623  1.00 74.80    -0.235 N 
ATOM     49  NH2 ARG A 281     197.878 183.013 196.673  1.00 61.99    -0.235 N 
ATOM     50 2HH1 ARG A 281     199.998 180.646 196.180  1.00  0.00     0.174 HD
ATOM     51 1HH1 ARG A 281     199.963 181.855 197.466  1.00  0.00     0.174 HD
ATOM     52 2HH2 ARG A 281     197.029 183.412 196.271  1.00  0.00     0.174 HD
ATOM     53 1HH2 ARG A 281     198.286 183.417 197.516  1.00  0.00     0.174 HD
ATOM     54  HE  ARG A 281     197.068 181.868 194.634  1.00  0.00     0.178 HD
ATOM     55  CA  LYS A 299     201.486 180.756 187.756  1.00 49.56     0.159 C 
ATOM     56  CB  LYS A 299     202.397 179.560 188.025  1.00 54.03     0.032 C 
ATOM     57  CG  LYS A 299     201.880 178.275 187.398  1.00 58.52     0.004 C 
ATOM     58  CD  LYS A 299     200.723 177.676 188.169  1.00 56.71     0.032 C 
ATOM     59  CE  LYS A 299     199.483 177.597 187.294  1.00 52.70     0.206 C 
ATOM     60  NZ  LYS A 299     199.558 176.479 186.323  1.00 62.42    -0.064 N 
ATOM     61  HZ3 LYS A 299     200.393 175.913 186.473  1.00  0.00     0.275 HD
ATOM     62  HZ2 LYS A 299     198.848 175.773 186.516  1.00  0.00     0.275 HD
ATOM     63  HZ1 LYS A 299     199.501 176.806 185.358  1.00  0.00     0.275 HD
ATOM     64  CA  ARG A 126     203.924 165.784 202.144  1.00149.40     0.159 C 
ATOM     65  CB  ARG A 126     204.246 164.987 200.881  1.00133.40     0.034 C 
ATOM     66  CG  ARG A 126     204.767 165.817 199.720  1.00130.01     0.027 C 
ATOM     67  CD  ARG A 126     206.083 166.483 200.091  1.00131.26     0.116 C 
ATOM     68  NE  ARG A 126     207.231 165.877 199.421  1.00126.38    -0.212 N 
ATOM     69  CZ  ARG A 126     208.293 166.560 199.008  1.00123.75     0.666 C 
ATOM     70  NH1 ARG A 126     208.355 167.869 199.201  1.00121.38    -0.235 N 
ATOM     71  NH2 ARG A 126     209.295 165.936 198.403  1.00134.78    -0.235 N 
ATOM     72 2HH1 ARG A 126     207.584 168.349 199.665  1.00  0.00     0.174 HD
ATOM     73 1HH1 ARG A 126     209.171 168.393 198.884  1.00  0.00     0.174 HD
ATOM     74 2HH2 ARG A 126     209.248 164.928 198.254  1.00  0.00     0.174 HD
ATOM     75 1HH2 ARG A 126     210.111 166.460 198.087  1.00  0.00     0.174 HD
ATOM     76  HE  ARG A 126     207.215 164.870 199.260  1.00  0.00     0.178 HD
ATOM     77  CA  LEU A 127     201.123 168.268 202.807  1.00153.88     0.160 C 
ATOM     78  CB  LEU A 127     200.758 168.860 204.171  1.00147.20     0.032 C 
ATOM     79  CG  LEU A 127     199.422 168.465 204.805  1.00145.17     0.002 C 
ATOM     80  CD1 LEU A 127     198.320 168.438 203.750  1.00 88.14     0.000 C 
ATOM     81  CD2 LEU A 127     199.531 167.119 205.506  1.00139.20     0.000 C 
ATOM     82  CA  GLU A 156     200.026 171.816 187.502  1.00 66.36     0.160 C 
ATOM     83  CB  GLU A 156     200.353 173.154 188.166  1.00 55.62     0.043 C 
ATOM     84  CG  GLU A 156     199.422 173.644 189.245  1.00 70.57     0.100 C 
ATOM     85  CD  GLU A 156     199.923 173.249 190.628  1.00 81.66     0.185 C 
ATOM     86  OE1 GLU A 156     199.773 172.068 191.009  1.00 65.56    -0.647 OA
ATOM     87  OE2 GLU A 156     200.482 174.119 191.330  1.00 89.99    -0.647 OA
ATOM     88  CA  VAL A 157     203.226 170.537 185.857  1.00 71.99     0.159 C 
ATOM     89  CB  VAL A 157     203.064 169.542 184.685  1.00 75.94     0.029 C 
ATOM     90  CG1 VAL A 157     203.763 168.234 184.995  1.00 76.66     0.002 C 
ATOM     91  CG2 VAL A 157     201.604 169.300 184.378  1.00 67.05     0.002 C 
ATOM     92  CA  ASP A 158     206.666 172.211 185.854  1.00 94.88     0.170 C 
ATOM     93  CB  ASP A 158     206.964 172.988 187.135  1.00104.96     0.129 C 
ATOM     94  CG  ASP A 158     206.304 172.378 188.356  1.00119.19     0.188 C 
ATOM     95  OD1 ASP A 158     205.160 172.767 188.677  1.00111.95    -0.647 OA
ATOM     96  OD2 ASP A 158     206.931 171.503 188.990  1.00131.05    -0.647 OA
ATOM     97  CA  THR A 235     212.747 184.477 187.590  1.00 53.73     0.186 C 
ATOM     98  CB  THR A 235     214.055 184.661 188.369  1.00 53.83     0.140 C 
ATOM     99  CG2 THR A 235     214.345 183.451 189.227  1.00 69.14     0.034 C 
ATOM    100  OG1 THR A 235     215.135 184.854 187.444  1.00 58.73    -0.382 OA
ATOM    101  HG1 THR A 235     214.839 184.636 186.568  1.00  0.00     0.210 HD
ATOM    102  CA  PHE A 301     206.276 185.417 186.926  1.00 52.37     0.164 C 
ATOM    103  CB  PHE A 301     207.456 184.607 186.381  1.00 49.06     0.058 C 
ATOM    104  CG  PHE A 301     208.580 185.432 185.841  1.00 51.77    -0.020 A 
ATOM    105  CD1 PHE A 301     209.177 185.114 184.630  1.00 53.15    -0.004 A 
ATOM    106  CE1 PHE A 301     210.213 185.884 184.125  1.00 57.48    -0.000 A 
ATOM    107  CZ  PHE A 301     210.641 186.998 184.816  1.00 55.39    -0.000 A 
ATOM    108  CE2 PHE A 301     210.037 187.339 186.015  1.00 55.43    -0.000 A 
ATOM    109  CD2 PHE A 301     209.008 186.563 186.517  1.00 51.71    -0.004 A 
ENDMDL
REMARK VINA RESULT:      -5.6      2.394      4.150
REMARK  15 active torsions:
REMARK  status: ('A' for Active; 'I' for Inactive)
REMARK    1  A    between atoms: C_3  and  C_23 
REMARK    2  A    between atoms: C_3  and  O_18 
REMARK    3  A    between atoms: C_8  and  N_30 
REMARK    4  A    between atoms: O_12  and  C_22 
REMARK    5  A    between atoms: O_13  and  C_24 
REMARK    6  A    between atoms: O_14  and  P_34 
REMARK    7  A    between atoms: O_15  and  P_35 
REMARK    8  A    between atoms: O_16  and  P_36 
REMARK    9  A    between atoms: O_17  and  P_36 
REMARK   10  A    between atoms: O_18  and  P_34 
REMARK   11  A    between atoms: O_19  and  P_34 
REMARK   12  A    between atoms: O_19  and  P_35 
REMARK   13  A    between atoms: O_20  and  P_35 
REMARK   14  A    between atoms: O_20  and  P_36 
REMARK   15  A    between atoms: C_21  and  N_39 
REMARK  2 active torsions:
REMARK  status: ('A' for Active; 'I' for Inactive)
REMARK    1  A    between atoms: CA   and  CB  
REMARK    2  A    between atoms: CB   and  OG  
REMARK  2 active torsions:
REMARK  status: ('A' for Active; 'I' for Inactive)
REMARK    3  A    between atoms: CA   and  CB  
REMARK    4  A    between atoms: CB   and  OG  
REMARK  1 active torsions:
REMARK  status: ('A' for Active; 'I' for Inactive)
REMARK    5  A    between atoms: CA   and  CB  
REMARK  2 active torsions:
REMARK  status: ('A' for Active; 'I' for Inactive)
REMARK    6  A    between atoms: CA   and  CB  
REMARK    7  A    between atoms: CB   and  OG  
REMARK  3 active torsions:
REMARK  status: ('A' for Active; 'I' for Inactive)
REMARK    8  A    between atoms: CA   and  CB  
REMARK    9  A    between atoms: CB   and  CG  
REMARK   10  A    between atoms: CZ   and  OH  
REMARK  2 active torsions:
REMARK  status: ('A' for Active; 'I' for Inactive)
REMARK   11  A    between atoms: CA   and  CB  
REMARK   12  A    between atoms: CB   and  CG  
REMARK       I    between atoms: CG   and  ND2 
REMARK  2 active torsions:
REMARK  status: ('A' for Active; 'I' for Inactive)
REMARK   13  A    between atoms: CA   and  CB  
REMARK   14  A    between atoms: CB   and  CG  
REMARK  4 active torsions:
REMARK  status: ('A' for Active; 'I' for Inactive)
REMARK   15  A    between atoms: CA   and  CB  
REMARK   16  A    between atoms: CB   and  CG  
REMARK   17  A    between atoms: CG   and  CD  
REMARK   18  A    between atoms: CD   and  NE  
REMARK       I    between atoms: NE   and  CZ  
REMARK       I    between atoms: CZ   and  NH1 
REMARK       I    between atoms: CZ   and  NH2 
REMARK  5 active torsions:
REMARK  status: ('A' for Active; 'I' for Inactive)
REMARK   19  A    between atoms: CA   and  CB  
REMARK   20  A    between atoms: CB   and  CG  
REMARK   21  A    between atoms: CG   and  CD  
REMARK   22  A    between atoms: CD   and  CE  
REMARK   23  A    between atoms: CE   and  NZ  
REMARK  4 active torsions:
REMARK  status: ('A' for Active; 'I' for Inactive)
REMARK   24  A    between atoms: CA   and  CB  
REMARK   25  A    between atoms: CB   and  CG  
REMARK   26  A    between atoms: CG   and  CD  
REMARK   27  A    between atoms: CD   and  NE  
REMARK       I    between atoms: NE   and  CZ  
REMARK       I    between atoms: CZ   and  NH1 
REMARK       I    between atoms: CZ   and  NH2 
REMARK  2 active torsions:
REMARK  status: ('A' for Active; 'I' for Inactive)
REMARK   28  A    between atoms: CA   and  CB  
REMARK   29  A    between atoms: CB   and  CG  
REMARK  3 active torsions:
REMARK  status: ('A' for Active; 'I' for Inactive)
REMARK   30  A    between atoms: CA   and  CB  
REMARK   31  A    between atoms: CB   and  CG  
REMARK   32  A    between atoms: CG   and  CD  
REMARK  1 active torsions:
REMARK  status: ('A' for Active; 'I' for Inactive)
REMARK   33  A    between atoms: CA   and  CB  
REMARK  2 active torsions:
REMARK  status: ('A' for Active; 'I' for Inactive)
REMARK   34  A    between atoms: CA   and  CB  
REMARK   35  A    between atoms: CB   and  CG  
REMARK  2 active torsions:
REMARK  status: ('A' for Active; 'I' for Inactive)
REMARK   36  A    between atoms: CA   and  CB  
REMARK   37  A    between atoms: CB   and  OG1 
REMARK  2 active torsions:
REMARK  status: ('A' for Active; 'I' for Inactive)
REMARK   38  A    between atoms: CA   and  CB  
REMARK   39  A    between atoms: CB   and  CG  
REMARK viewdock state: V
ATOM      1  C   LIG d   1     210.824 179.612 190.063  0.00  0.00     0.203 A 
ATOM      2  C   LIG d   1     211.844 175.581 188.736  0.00  0.00     0.225 A 
ATOM      3  C   LIG d   1     211.821 177.496 187.424  0.00  0.00     0.147 A 
ATOM      4  N   LIG d   1     211.494 176.160 189.907  0.00  0.00    -0.216 NA
ATOM      5  N   LIG d   1     211.135 179.539 188.785  0.00  0.00    -0.231 NA
ATOM      6  N   LIG d   1     212.010 176.161 187.528  0.00  0.00    -0.219 NA
ATOM      7  C   LIG d   1     211.294 177.480 189.740  0.00  0.00     0.167 A 
ATOM      8  C   LIG d   1     211.432 178.209 188.570  0.00  0.00     0.147 A 
ATOM      9  N   LIG d   1     210.920 178.397 190.687  0.00  0.00    -0.285 N 
ATOM     10  C   LIG d   1     210.635 178.095 192.078  0.00  0.00     0.253 C 
ATOM     11  O   LIG d   1     209.421 177.322 192.161  0.00  0.00    -0.346 OA
ATOM     12  C   LIG d   1     208.595 177.882 193.215  0.00  0.00     0.178 C 
ATOM     13  C   LIG d   1     209.497 178.813 194.018  0.00  0.00     0.178 C 
ATOM     14  C   LIG d   1     210.420 179.347 192.940  0.00  0.00     0.195 C 
ATOM     15  C   LIG d   1     207.967 176.756 194.029  0.00  0.00     0.206 C 
ATOM     16  O   LIG d   1     208.806 175.607 193.942  0.00  0.00    -0.284 OA
ATOM     17  P   LIG d   1     208.071 174.203 193.669  0.00  0.00     0.483 P 
ATOM     18  O   LIG d   1     208.803 173.272 192.766  0.00  0.00    -0.227 OA
ATOM     19  O   LIG d   1     206.614 174.626 193.211  0.00  0.00    -0.186 OA
ATOM     20  P   LIG d   1     205.991 174.323 191.785  0.00  0.00     0.492 P 
ATOM     21  O   LIG d   1     206.578 175.013 190.606  0.00  0.00    -0.227 OA
ATOM     22  O   LIG d   1     204.431 174.536 192.015  0.00  0.00    -0.186 OA
ATOM     23  P   LIG d   1     203.562 173.486 192.818  0.00  0.00     0.481 P 
ATOM     24  O   LIG d   1     203.174 172.220 192.146  0.00  0.00    -0.227 OA
ATOM     25  O   LIG d   1     202.300 174.337 193.302  0.00  0.00    -0.302 OA
ATOM     26  H   LIG d   1     201.651 174.449 192.581  0.00  0.00     0.222 HD
ATOM     27  O   LIG d   1     204.343 173.283 194.202  0.00  0.00    -0.302 OA
ATOM     28  H   LIG d   1     204.726 174.137 194.488  0.00  0.00     0.222 HD
ATOM     29  O   LIG d   1     206.088 172.720 191.713  0.00  0.00    -0.302 OA
ATOM     30  H   LIG d   1     205.685 172.325 192.517  0.00  0.00     0.222 HD
ATOM     31  O   LIG d   1     207.856 173.669 195.164  0.00  0.00    -0.302 OA
ATOM     32  H   LIG d   1     207.133 174.131 195.626  0.00  0.00     0.222 HD
ATOM     33  O   LIG d   1     210.265 178.102 194.992  0.00  0.00    -0.386 OA
ATOM     34  H   LIG d   1     210.749 178.791 195.494  0.00  0.00     0.210 HD
ATOM     35  O   LIG d   1     211.609 179.871 193.533  0.00  0.00    -0.385 OA
ATOM     36  H   LIG d   1     212.122 180.289 192.806  0.00  0.00     0.210 HD
ATOM     37  N   LIG d   1     212.001 178.091 186.182  0.00  0.00    -0.341 NA
ATOM     38  H   LIG d   1     212.953 178.405 186.024  0.00  0.00     0.144 HD
ATOM     39  H   LIG d   1     211.255 178.735 185.958  0.00  0.00     0.144 HD
ATOM      1  CA  SER A 272     219.500 182.733 197.389  1.00 76.05     0.189 C 
ATOM      2  CB  SER A 272     218.127 183.058 197.980  1.00 67.27     0.169 C 
ATOM      3  OG  SER A 272     218.256 183.822 199.169  1.00 67.48    -0.380 OA
ATOM      4  HG  SER A 272     219.116 183.705 199.555  1.00  0.00     0.211 HD
ATOM      5  CA  SER A 273     219.476 179.341 195.712  1.00 95.92     0.189 C 
ATOM      6  CB  SER A 273     220.525 178.254 195.952  1.00101.58     0.169 C 
ATOM      7  OG  SER A 273     221.113 177.849 194.727  1.00 85.34    -0.380 OA
ATOM      8  HG  SER A 273     221.892 178.362 194.544  1.00  0.00     0.211 HD
ATOM      9  CA  VAL A 274     216.112 178.448 197.254  1.00 73.25     0.159 C 
ATOM     10  CB  VAL A 274     215.954 178.192 198.764  1.00 64.82     0.029 C 
ATOM     11  CG2 VAL A 274     217.180 178.674 199.520  1.00 83.80     0.002 C 
ATOM     12  CG1 VAL A 274     215.680 176.724 199.036  1.00 74.90     0.002 C 
ATOM     13  CA  SER A 275     214.008 181.464 196.150  1.00 63.68     0.189 C 
ATOM     14  CB  SER A 275     213.202 181.973 197.344  1.00 53.99     0.169 C 
ATOM     15  OG  SER A 275     213.288 181.087 198.446  1.00 69.59    -0.380 OA
ATOM     16  HG  SER A 275     213.817 180.325 198.241  1.00  0.00     0.211 HD
ATOM     17  CA  TYR A 278     208.988 186.676 192.328  1.00 45.93     0.164 C 
ATOM     18  CB  TYR A 278     208.875 188.200 192.364  1.00 46.39     0.058 C 
ATOM     19  CG  TYR A 278     208.940 188.803 193.748  1.00 49.20    -0.020 A 
ATOM     20  CD2 TYR A 278     208.174 188.280 194.783  1.00 46.83    -0.002 A 
ATOM     21  CE2 TYR A 278     208.218 188.823 196.051  1.00 52.67     0.024 A 
ATOM     22  CZ  TYR A 278     209.035 189.902 196.300  1.00 55.35     0.089 A 
ATOM     23  CE1 TYR A 278     209.806 190.442 195.292  1.00 55.53     0.024 A 
ATOM     24  CD1 TYR A 278     209.756 189.892 194.023  1.00 50.19    -0.002 A 
ATOM     25  OH  TYR A 278     209.081 190.442 197.562  1.00 54.18    -0.359 OA
ATOM     26  HH  TYR A 278     209.513 191.277 197.701  1.00  0.00     0.217 HD
ATOM     27  CA  ASN A 279     205.913 184.718 191.231  1.00 49.32     0.169 C 
ATOM     28  CB  ASN A 279     206.291 183.397 190.562  1.00 41.19     0.119 C 
ATOM     29  CG  ASN A 279     205.157 182.819 189.753  1.00 49.81     0.230 C 
ATOM     30  OD1 ASN A 279     205.184 182.847 188.525  1.00 57.93    -0.273 OA
ATOM     31  ND2 ASN A 279     204.149 182.291 190.434  1.00 54.39    -0.369 N 
ATOM     32 2HD2 ASN A 279     204.127 182.268 191.454  1.00  0.00     0.159 HD
ATOM     33 1HD2 ASN A 279     203.383 181.901 189.887  1.00  0.00     0.159 HD
ATOM     34  CA  PHE A 280     202.335 184.098 192.325  1.00 48.50     0.164 C 
ATOM     35  CB  PHE A 280     201.775 185.418 192.860  1.00 46.97     0.058 C 
ATOM     36  CG  PHE A 280     201.713 185.479 194.352  1.00 48.53    -0.020 A 
ATOM     37  CD2 PHE A 280     200.754 184.760 195.051  1.00 47.66    -0.004 A 
ATOM     38  CE2 PHE A 280     200.692 184.824 196.431  1.00 56.11    -0.000 A 
ATOM     39  CZ  PHE A 280     201.591 185.620 197.127  1.00 54.55    -0.000 A 
ATOM     40  CE1 PHE A 280     202.548 186.342 196.440  1.00 58.17    -0.000 A 
ATOM     41  CD1 PHE A 280     202.604 186.273 195.059  1.00 57.66    -0.004 A 
ATOM     42  CA  ARG A 281     199.282 182.045 191.372  1.00 53.90     0.159 C 
ATOM     43  CB  ARG A 281     199.250 180.605 191.908  1.00 43.93     0.034 C 
ATOM     44  CG  ARG A 281     197.841 180.058 192.104  1.00 59.82     0.027 C 
ATOM     45  CD  ARG A 281     197.578 179.683 193.554  1.00 43.25     0.116 C 
ATOM     46  NE  ARG A 281     198.154 180.671 194.461  1.00 49.00    -0.212 N 
ATOM     47  CZ  ARG A 281     198.634 180.391 195.667  1.00 62.89     0.666 C 
ATOM     48  NH1 ARG A 281     198.605 179.146 196.127  1.00 74.80    -0.235 N 
ATOM     49  NH2 ARG A 281     199.140 181.356 196.415  1.00 61.99    -0.235 N 
ATOM     50 2HH1 ARG A 281     198.214 178.400 195.550  1.00  0.00     0.174 HD
ATOM     51 1HH1 ARG A 281     198.973 178.931 197.053  1.00  0.00     0.174 HD
ATOM     52 2HH2 ARG A 281     199.162 182.313 196.063  1.00  0.00     0.174 HD
ATOM     53 1HH2 ARG A 281     199.508 181.141 197.342  1.00  0.00     0.174 HD
ATOM     54  HE  ARG A 281     198.189 181.641 194.148  1.00  0.00     0.178 HD
ATOM     55  CA  LYS A 299     201.486 180.756 187.756  1.00 49.56     0.159 C 
ATOM     56  CB  LYS A 299     202.397 179.560 188.025  1.00 54.03     0.032 C 
ATOM     57  CG  LYS A 299     201.787 178.244 187.571  1.00 58.52     0.004 C 
ATOM     58  CD  LYS A 299     200.313 178.366 187.247  1.00 56.71     0.032 C 
ATOM     59  CE  LYS A 299     199.615 177.029 187.429  1.00 52.70     0.206 C 
ATOM     60  NZ  LYS A 299     199.159 176.459 186.138  1.00 62.42    -0.064 N 
ATOM     61  HZ3 LYS A 299     199.406 175.473 186.061  1.00  0.00     0.275 HD
ATOM     62  HZ2 LYS A 299     198.143 176.374 186.110  1.00  0.00     0.275 HD
ATOM     63  HZ1 LYS A 299     199.507 176.991 185.340  1.00  0.00     0.275 HD
ATOM     64  CA  ARG A 126     203.924 165.784 202.144  1.00149.40     0.159 C 
ATOM     65  CB  ARG A 126     204.246 164.987 200.881  1.00133.40     0.034 C 
ATOM     66  CG  ARG A 126     204.572 165.832 199.661  1.00130.01     0.027 C 
ATOM     67  CD  ARG A 126     206.077 165.992 199.513  1.00131.26     0.116 C 
ATOM     68  NE  ARG A 126     206.448 167.217 198.808  1.00126.38    -0.212 N 
ATOM     69  CZ  ARG A 126     207.173 168.191 199.347  1.00123.75     0.666 C 
ATOM     70  NH1 ARG A 126     207.609 168.081 200.593  1.00121.38    -0.235 N 
ATOM     71  NH2 ARG A 126     207.466 169.275 198.642  1.00134.78    -0.235 N 
ATOM     72 2HH1 ARG A 126     207.383 167.247 201.136  1.00  0.00     0.174 HD
ATOM     73 1HH1 ARG A 126     208.166 168.828 201.007  1.00  0.00     0.174 HD
ATOM     74 2HH2 ARG A 126     207.131 169.361 197.682  1.00  0.00     0.174 HD
ATOM     75 1HH2 ARG A 126     208.023 170.023 199.055  1.00  0.00     0.174 HD
ATOM     76  HE  ARG A 126     206.131 167.331 197.846  1.00  0.00     0.178 HD
ATOM     77  CA  LEU A 127     201.123 168.268 202.807  1.00153.88     0.160 C 
ATOM     78  CB  LEU A 127     200.758 168.860 204.171  1.00147.20     0.032 C 
ATOM     79  CG  LEU A 127     199.437 168.440 204.820  1.00145.17     0.002 C 
ATOM     80  CD1 LEU A 127     198.275 168.677 203.862  1.00 88.14     0.000 C 
ATOM     81  CD2 LEU A 127     199.486 166.984 205.257  1.00139.20     0.000 C 
ATOM     82  CA  GLU A 156     200.026 171.816 187.502  1.00 66.36     0.160 C 
ATOM     83  CB  GLU A 156     200.353 173.154 188.166  1.00 55.62     0.043 C 
ATOM     84  CG  GLU A 156     199.361 173.701 189.160  1.00 70.57     0.100 C 
ATOM     85  CD  GLU A 156     199.737 173.314 190.585  1.00 81.66     0.185 C 
ATOM     86  OE1 GLU A 156     200.440 174.101 191.256  1.00 65.56    -0.647 OA
ATOM     87  OE2 GLU A 156     199.318 172.228 191.039  1.00 89.99    -0.647 OA
ATOM     88  CA  VAL A 157     203.226 170.537 185.857  1.00 71.99     0.159 C 
ATOM     89  CB  VAL A 157     203.064 169.542 184.685  1.00 75.94     0.029 C 
ATOM     90  CG1 VAL A 157     203.762 168.234 184.995  1.00 76.66     0.002 C 
ATOM     91  CG2 VAL A 157     201.604 169.300 184.377  1.00 67.05     0.002 C 
ATOM     92  CA  ASP A 158     206.666 172.211 185.854  1.00 94.88     0.170 C 
ATOM     93  CB  ASP A 158     206.964 172.988 187.135  1.00104.96     0.129 C 
ATOM     94  CG  ASP A 158     206.317 172.369 188.358  1.00119.19     0.188 C 
ATOM     95  OD1 ASP A 158     205.145 172.695 188.647  1.00111.95    -0.647 OA
ATOM     96  OD2 ASP A 158     206.983 171.550 189.026  1.00131.05    -0.647 OA
ATOM     97  CA  THR A 235     212.747 184.477 187.590  1.00 53.73     0.186 C 
ATOM     98  CB  THR A 235     214.055 184.661 188.369  1.00 53.83     0.140 C 
ATOM     99  CG2 THR A 235     214.325 183.468 189.257  1.00 69.14     0.034 C 
ATOM    100  OG1 THR A 235     215.140 184.816 187.444  1.00 58.73    -0.382 OA
ATOM    101  HG1 THR A 235     215.208 185.729 187.191  1.00  0.00     0.210 HD
ATOM    102  CA  PHE A 301     206.276 185.417 186.926  1.00 52.37     0.164 C 
ATOM    103  CB  PHE A 301     207.456 184.607 186.381  1.00 49.06     0.058 C 
ATOM    104  CG  PHE A 301     208.565 185.432 185.810  1.00 51.77    -0.020 A 
ATOM    105  CD1 PHE A 301     209.001 186.580 186.455  1.00 53.15    -0.004 A 
ATOM    106  CE1 PHE A 301     210.034 187.339 185.929  1.00 57.48    -0.000 A 
ATOM    107  CZ  PHE A 301     210.659 186.940 184.767  1.00 55.39    -0.000 A 
ATOM    108  CE2 PHE A 301     210.248 185.783 184.126  1.00 55.43    -0.000 A 
ATOM    109  CD2 PHE A 301     209.211 185.032 184.652  1.00 51.71    -0.004 A 
ENDMDL
REMARK VINA RESULT:      -5.5      4.090      6.764
REMARK  15 active torsions:
REMARK  status: ('A' for Active; 'I' for Inactive)
REMARK    1  A    between atoms: C_3  and  C_23 
REMARK    2  A    between atoms: C_3  and  O_18 
REMARK    3  A    between atoms: C_8  and  N_30 
REMARK    4  A    between atoms: O_12  and  C_22 
REMARK    5  A    between atoms: O_13  and  C_24 
REMARK    6  A    between atoms: O_14  and  P_34 
REMARK    7  A    between atoms: O_15  and  P_35 
REMARK    8  A    between atoms: O_16  and  P_36 
REMARK    9  A    between atoms: O_17  and  P_36 
REMARK   10  A    between atoms: O_18  and  P_34 
REMARK   11  A    between atoms: O_19  and  P_34 
REMARK   12  A    between atoms: O_19  and  P_35 
REMARK   13  A    between atoms: O_20  and  P_35 
REMARK   14  A    between atoms: O_20  and  P_36 
REMARK   15  A    between atoms: C_21  and  N_39 
REMARK  2 active torsions:
REMARK  status: ('A' for Active; 'I' for Inactive)
REMARK    1  A    between atoms: CA   and  CB  
REMARK    2  A    between atoms: CB   and  OG  
REMARK  2 active torsions:
REMARK  status: ('A' for Active; 'I' for Inactive)
REMARK    3  A    between atoms: CA   and  CB  
REMARK    4  A    between atoms: CB   and  OG  
REMARK  1 active torsions:
REMARK  status: ('A' for Active; 'I' for Inactive)
REMARK    5  A    between atoms: CA   and  CB  
REMARK  2 active torsions:
REMARK  status: ('A' for Active; 'I' for Inactive)
REMARK    6  A    between atoms: CA   and  CB  
REMARK    7  A    between atoms: CB   and  OG  
REMARK  3 active torsions:
REMARK  status: ('A' for Active; 'I' for Inactive)
REMARK    8  A    between atoms: CA   and  CB  
REMARK    9  A    between atoms: CB   and  CG  
REMARK   10  A    between atoms: CZ   and  OH  
REMARK  2 active torsions:
REMARK  status: ('A' for Active; 'I' for Inactive)
REMARK   11  A    between atoms: CA   and  CB  
REMARK   12  A    between atoms: CB   and  CG  
REMARK       I    between atoms: CG   and  ND2 
REMARK  2 active torsions:
REMARK  status: ('A' for Active; 'I' for Inactive)
REMARK   13  A    between atoms: CA   and  CB  
REMARK   14  A    between atoms: CB   and  CG  
REMARK  4 active torsions:
REMARK  status: ('A' for Active; 'I' for Inactive)
REMARK   15  A    between atoms: CA   and  CB  
REMARK   16  A    between atoms: CB   and  CG  
REMARK   17  A    between atoms: CG   and  CD  
REMARK   18  A    between atoms: CD   and  NE  
REMARK       I    between atoms: NE   and  CZ  
REMARK       I    between atoms: CZ   and  NH1 
REMARK       I    between atoms: CZ   and  NH2 
REMARK  5 active torsions:
REMARK  status: ('A' for Active; 'I' for Inactive)
REMARK   19  A    between atoms: CA   and  CB  
REMARK   20  A    between atoms: CB   and  CG  
REMARK   21  A    between atoms: CG   and  CD  
REMARK   22  A    between atoms: CD   and  CE  
REMARK   23  A    between atoms: CE   and  NZ  
REMARK  4 active torsions:
REMARK  status: ('A' for Active; 'I' for Inactive)
REMARK   24  A    between atoms: CA   and  CB  
REMARK   25  A    between atoms: CB   and  CG  
REMARK   26  A    between atoms: CG   and  CD  
REMARK   27  A    between atoms: CD   and  NE  
REMARK       I    between atoms: NE   and  CZ  
REMARK       I    between atoms: CZ   and  NH1 
REMARK       I    between atoms: CZ   and  NH2 
REMARK  2 active torsions:
REMARK  status: ('A' for Active; 'I' for Inactive)
REMARK   28  A    between atoms: CA   and  CB  
REMARK   29  A    between atoms: CB   and  CG  
REMARK  3 active torsions:
REMARK  status: ('A' for Active; 'I' for Inactive)
REMARK   30  A    between atoms: CA   and  CB  
REMARK   31  A    between atoms: CB   and  CG  
REMARK   32  A    between atoms: CG   and  CD  
REMARK  1 active torsions:
REMARK  status: ('A' for Active; 'I' for Inactive)
REMARK   33  A    between atoms: CA   and  CB  
REMARK  2 active torsions:
REMARK  status: ('A' for Active; 'I' for Inactive)
REMARK   34  A    between atoms: CA   and  CB  
REMARK   35  A    between atoms: CB   and  CG  
REMARK  2 active torsions:
REMARK  status: ('A' for Active; 'I' for Inactive)
REMARK   36  A    between atoms: CA   and  CB  
REMARK   37  A    between atoms: CB   and  OG1 
REMARK  2 active torsions:
REMARK  status: ('A' for Active; 'I' for Inactive)
REMARK   38  A    between atoms: CA   and  CB  
REMARK   39  A    between atoms: CB   and  CG  
REMARK viewdock state: V
ATOM      1  C   LIG d   1     208.881 167.796 188.795  0.00  0.00     0.203 A 
ATOM      2  C   LIG d   1     212.197 169.386 186.444  0.00  0.00     0.225 A 
ATOM      3  C   LIG d   1     211.008 167.441 186.004  0.00  0.00     0.147 A 
ATOM      4  N   LIG d   1     211.512 169.773 187.544  0.00  0.00    -0.216 NA
ATOM      5  N   LIG d   1     209.194 167.055 187.751  0.00  0.00    -0.231 NA
ATOM      6  N   LIG d   1     212.008 168.292 185.677  0.00  0.00    -0.219 NA
ATOM      7  C   LIG d   1     210.550 168.879 187.838  0.00  0.00     0.167 A 
ATOM      8  C   LIG d   1     210.237 167.721 187.144  0.00  0.00     0.147 A 
ATOM      9  N   LIG d   1     209.663 168.917 188.882  0.00  0.00    -0.285 N 
ATOM     10  C   LIG d   1     209.616 169.946 189.905  0.00  0.00     0.253 C 
ATOM     11  O   LIG d   1     208.760 169.512 190.981  0.00  0.00    -0.346 OA
ATOM     12  C   LIG d   1     207.880 170.609 191.335  0.00  0.00     0.178 C 
ATOM     13  C   LIG d   1     208.460 171.855 190.675  0.00  0.00     0.178 C 
ATOM     14  C   LIG d   1     209.047 171.280 189.401  0.00  0.00     0.195 C 
ATOM     15  C   LIG d   1     207.754 170.700 192.851  0.00  0.00     0.206 C 
ATOM     16  O   LIG d   1     207.270 171.997 193.193  0.00  0.00    -0.284 OA
ATOM     17  P   LIG d   1     205.778 172.073 193.786  0.00  0.00     0.483 P 
ATOM     18  O   LIG d   1     205.515 171.185 194.952  0.00  0.00    -0.227 OA
ATOM     19  O   LIG d   1     204.858 171.853 192.513  0.00  0.00    -0.186 OA
ATOM     20  P   LIG d   1     203.561 172.700 192.179  0.00  0.00     0.492 P 
ATOM     21  O   LIG d   1     202.695 173.127 193.310  0.00  0.00    -0.227 OA
ATOM     22  O   LIG d   1     202.851 171.846 191.039  0.00  0.00    -0.186 OA
ATOM     23  P   LIG d   1     202.560 170.303 191.222  0.00  0.00     0.481 P 
ATOM     24  O   LIG d   1     203.371 169.328 190.448  0.00  0.00    -0.227 OA
ATOM     25  O   LIG d   1     200.997 170.178 190.918  0.00  0.00    -0.302 OA
ATOM     26  H   LIG d   1     200.464 170.595 191.622  0.00  0.00     0.222 HD
ATOM     27  O   LIG d   1     202.585 170.067 192.806  0.00  0.00    -0.302 OA
ATOM     28  H   LIG d   1     203.149 170.746 193.227  0.00  0.00     0.222 HD
ATOM     29  O   LIG d   1     204.170 173.923 191.332  0.00  0.00    -0.302 OA
ATOM     30  H   LIG d   1     204.488 173.599 190.462  0.00  0.00     0.222 HD
ATOM     31  O   LIG d   1     205.641 173.641 194.082  0.00  0.00    -0.302 OA
ATOM     32  H   LIG d   1     205.120 174.107 193.402  0.00  0.00     0.222 HD
ATOM     33  O   LIG d   1     209.505 172.436 191.460  0.00  0.00    -0.386 OA
ATOM     34  H   LIG d   1     210.335 172.036 191.123  0.00  0.00     0.210 HD
ATOM     35  O   LIG d   1     210.021 172.177 188.865  0.00  0.00    -0.385 OA
ATOM     36  H   LIG d   1     210.515 172.542 189.632  0.00  0.00     0.210 HD
ATOM     37  N   LIG d   1     210.811 166.320 185.208  0.00  0.00    -0.341 NA
ATOM     38  H   LIG d   1     211.388 166.316 184.374  0.00  0.00     0.144 HD
ATOM     39  H   LIG d   1     209.830 166.103 185.097  0.00  0.00     0.144 HD
ATOM      1  CA  SER A 272     219.500 182.733 197.389  1.00 76.05     0.189 C 
ATOM      2  CB  SER A 272     218.127 183.058 197.980  1.00 67.27     0.169 C 
ATOM      3  OG  SER A 272     217.391 183.908 197.114  1.00 67.48    -0.380 OA
ATOM      4  HG  SER A 272     217.262 184.763 197.508  1.00  0.00     0.211 HD
ATOM      5  CA  SER A 273     219.476 179.341 195.712  1.00 95.92     0.189 C 
ATOM      6  CB  SER A 273     220.525 178.254 195.952  1.00101.58     0.169 C 
ATOM      7  OG  SER A 273     220.935 177.676 194.723  1.00 85.34    -0.380 OA
ATOM      8  HG  SER A 273     221.722 178.100 194.401  1.00  0.00     0.211 HD
ATOM      9  CA  VAL A 274     216.112 178.448 197.254  1.00 73.25     0.159 C 
ATOM     10  CB  VAL A 274     215.954 178.192 198.764  1.00 64.82     0.029 C 
ATOM     11  CG2 VAL A 274     217.179 178.675 199.520  1.00 83.80     0.002 C 
ATOM     12  CG1 VAL A 274     215.681 176.724 199.036  1.00 74.90     0.002 C 
ATOM     13  CA  SER A 275     214.008 181.464 196.150  1.00 63.68     0.189 C 
ATOM     14  CB  SER A 275     213.202 181.973 197.344  1.00 53.99     0.169 C 
ATOM     15  OG  SER A 275     214.014 182.122 198.495  1.00 69.59    -0.380 OA
ATOM     16  HG  SER A 275     214.356 183.004 198.569  1.00  0.00     0.211 HD
ATOM     17  CA  TYR A 278     208.988 186.676 192.328  1.00 45.93     0.164 C 
ATOM     18  CB  TYR A 278     208.875 188.200 192.364  1.00 46.39     0.058 C 
ATOM     19  CG  TYR A 278     208.940 188.803 193.748  1.00 49.20    -0.020 A 
ATOM     20  CD2 TYR A 278     208.175 188.280 194.784  1.00 46.83    -0.002 A 
ATOM     21  CE2 TYR A 278     208.220 188.822 196.051  1.00 52.67     0.024 A 
ATOM     22  CZ  TYR A 278     209.035 189.902 196.300  1.00 55.35     0.089 A 
ATOM     23  CE1 TYR A 278     209.805 190.442 195.291  1.00 55.53     0.024 A 
ATOM     24  CD1 TYR A 278     209.755 189.893 194.023  1.00 50.19    -0.002 A 
ATOM     25  OH  TYR A 278     209.082 190.442 197.562  1.00 54.18    -0.359 OA
ATOM     26  HH  TYR A 278     209.922 190.581 197.984  1.00  0.00     0.217 HD
ATOM     27  CA  ASN A 279     205.913 184.718 191.231  1.00 49.32     0.169 C 
ATOM     28  CB  ASN A 279     206.291 183.397 190.562  1.00 41.19     0.119 C 
ATOM     29  CG  ASN A 279     205.102 182.709 189.939  1.00 49.81     0.230 C 
ATOM     30  OD1 ASN A 279     204.197 182.261 190.639  1.00 57.93    -0.273 OA
ATOM     31  ND2 ASN A 279     205.096 182.616 188.616  1.00 54.39    -0.369 N 
ATOM     32 2HD2 ASN A 279     205.847 182.988 188.035  1.00  0.00     0.159 HD
ATOM     33 1HD2 ASN A 279     204.292 182.151 188.195  1.00  0.00     0.159 HD
ATOM     34  CA  PHE A 280     202.335 184.098 192.325  1.00 48.50     0.164 C 
ATOM     35  CB  PHE A 280     201.775 185.418 192.860  1.00 46.97     0.058 C 
ATOM     36  CG  PHE A 280     201.678 185.465 194.351  1.00 48.53    -0.020 A 
ATOM     37  CD2 PHE A 280     202.552 186.249 195.092  1.00 47.66    -0.004 A 
ATOM     38  CE2 PHE A 280     202.467 186.285 196.472  1.00 56.11    -0.000 A 
ATOM     39  CZ  PHE A 280     201.506 185.527 197.126  1.00 54.55    -0.000 A 
ATOM     40  CE1 PHE A 280     200.635 184.741 196.397  1.00 58.17    -0.000 A 
ATOM     41  CD1 PHE A 280     200.725 184.709 195.016  1.00 57.66    -0.004 A 
ATOM     42  CA  ARG A 281     199.282 182.045 191.372  1.00 53.90     0.159 C 
ATOM     43  CB  ARG A 281     199.250 180.605 191.908  1.00 43.93     0.034 C 
ATOM     44  CG  ARG A 281     198.231 180.391 193.022  1.00 59.82     0.027 C 
ATOM     45  CD  ARG A 281     198.878 180.455 194.397  1.00 43.25     0.116 C 
ATOM     46  NE  ARG A 281     198.005 179.874 195.412  1.00 49.00    -0.212 N 
ATOM     47  CZ  ARG A 281     197.907 180.319 196.660  1.00 62.89     0.666 C 
ATOM     48  NH1 ARG A 281     198.637 181.353 197.061  1.00 74.80    -0.235 N 
ATOM     49  NH2 ARG A 281     197.083 179.727 197.507  1.00 61.99    -0.235 N 
ATOM     50 2HH1 ARG A 281     199.273 181.810 196.407  1.00  0.00     0.174 HD
ATOM     51 1HH1 ARG A 281     198.562 181.695 198.019  1.00  0.00     0.174 HD
ATOM     52 2HH2 ARG A 281     196.523 178.932 197.199  1.00  0.00     0.174 HD
ATOM     53 1HH2 ARG A 281     197.008 180.069 198.465  1.00  0.00     0.174 HD
ATOM     54  HE  ARG A 281     197.433 179.073 195.146  1.00  0.00     0.178 HD
ATOM     55  CA  LYS A 299     201.486 180.756 187.756  1.00 49.56     0.159 C 
ATOM     56  CB  LYS A 299     202.397 179.560 188.025  1.00 54.03     0.032 C 
ATOM     57  CG  LYS A 299     201.622 178.288 188.327  1.00 58.52     0.004 C 
ATOM     58  CD  LYS A 299     201.020 177.664 187.085  1.00 56.71     0.032 C 
ATOM     59  CE  LYS A 299     199.556 177.330 187.313  1.00 52.70     0.206 C 
ATOM     60  NZ  LYS A 299     199.041 176.368 186.309  1.00 62.42    -0.064 N 
ATOM     61  HZ3 LYS A 299     199.268 176.666 185.360  1.00  0.00     0.275 HD
ATOM     62  HZ2 LYS A 299     199.566 175.494 186.332  1.00  0.00     0.275 HD
ATOM     63  HZ1 LYS A 299     198.040 176.202 186.415  1.00  0.00     0.275 HD
ATOM     64  CA  ARG A 126     203.924 165.784 202.144  1.00149.40     0.159 C 
ATOM     65  CB  ARG A 126     204.246 164.987 200.881  1.00133.40     0.034 C 
ATOM     66  CG  ARG A 126     204.412 165.825 199.625  1.00130.01     0.027 C 
ATOM     67  CD  ARG A 126     205.857 166.275 199.472  1.00131.26     0.116 C 
ATOM     68  NE  ARG A 126     205.982 167.534 198.743  1.00126.38    -0.212 N 
ATOM     69  CZ  ARG A 126     207.144 168.096 198.429  1.00123.75     0.666 C 
ATOM     70  NH1 ARG A 126     208.280 167.508 198.778  1.00121.38    -0.235 N 
ATOM     71  NH2 ARG A 126     207.175 169.244 197.766  1.00134.78    -0.235 N 
ATOM     72 2HH1 ARG A 126     208.256 166.625 199.288  1.00  0.00     0.174 HD
ATOM     73 1HH1 ARG A 126     209.172 167.940 198.537  1.00  0.00     0.174 HD
ATOM     74 2HH2 ARG A 126     206.301 169.697 197.498  1.00  0.00     0.174 HD
ATOM     75 1HH2 ARG A 126     208.067 169.676 197.525  1.00  0.00     0.174 HD
ATOM     76  HE  ARG A 126     205.127 168.010 198.457  1.00  0.00     0.178 HD
ATOM     77  CA  LEU A 127     201.123 168.268 202.807  1.00153.88     0.160 C 
ATOM     78  CB  LEU A 127     200.758 168.860 204.171  1.00147.20     0.032 C 
ATOM     79  CG  LEU A 127     199.447 168.424 204.830  1.00145.17     0.002 C 
ATOM     80  CD1 LEU A 127     198.260 168.785 203.942  1.00 88.14     0.000 C 
ATOM     81  CD2 LEU A 127     199.461 166.933 205.131  1.00139.20     0.000 C 
ATOM     82  CA  GLU A 156     200.026 171.816 187.502  1.00 66.36     0.160 C 
ATOM     83  CB  GLU A 156     200.353 173.154 188.166  1.00 55.62     0.043 C 
ATOM     84  CG  GLU A 156     199.314 173.752 189.080  1.00 70.57     0.100 C 
ATOM     85  CD  GLU A 156     199.542 173.330 190.526  1.00 81.66     0.185 C 
ATOM     86  OE1 GLU A 156     200.245 174.057 191.261  1.00 65.56    -0.647 OA
ATOM     87  OE2 GLU A 156     199.006 172.277 190.931  1.00 89.99    -0.647 OA
ATOM     88  CA  VAL A 157     203.226 170.537 185.857  1.00 71.99     0.159 C 
ATOM     89  CB  VAL A 157     203.064 169.542 184.685  1.00 75.94     0.029 C 
ATOM     90  CG1 VAL A 157     204.417 169.153 184.125  1.00 76.66     0.002 C 
ATOM     91  CG2 VAL A 157     202.299 168.313 185.119  1.00 67.05     0.002 C 
ATOM     92  CA  ASP A 158     206.666 172.211 185.854  1.00 94.88     0.170 C 
ATOM     93  CB  ASP A 158     206.964 172.988 187.135  1.00104.96     0.129 C 
ATOM     94  CG  ASP A 158     205.713 173.306 187.930  1.00119.19     0.188 C 
ATOM     95  OD1 ASP A 158     204.995 174.262 187.563  1.00111.95    -0.647 OA
ATOM     96  OD2 ASP A 158     205.447 172.593 188.920  1.00131.05    -0.647 OA
ATOM     97  CA  THR A 235     212.747 184.477 187.590  1.00 53.73     0.186 C 
ATOM     98  CB  THR A 235     214.055 184.661 188.369  1.00 53.83     0.140 C 
ATOM     99  CG2 THR A 235     214.322 183.470 189.262  1.00 69.14     0.034 C 
ATOM    100  OG1 THR A 235     215.141 184.811 187.444  1.00 58.73    -0.382 OA
ATOM    101  HG1 THR A 235     215.154 185.703 187.118  1.00  0.00     0.210 HD
ATOM    102  CA  PHE A 301     206.276 185.417 186.926  1.00 52.37     0.164 C 
ATOM    103  CB  PHE A 301     207.456 184.607 186.381  1.00 49.06     0.058 C 
ATOM    104  CG  PHE A 301     208.436 184.162 187.419  1.00 51.77    -0.020 A 
ATOM    105  CD1 PHE A 301     209.461 183.284 187.097  1.00 53.15    -0.004 A 
ATOM    106  CE1 PHE A 301     210.374 182.878 188.057  1.00 57.48    -0.000 A 
ATOM    107  CZ  PHE A 301     210.286 183.370 189.342  1.00 55.39    -0.000 A 
ATOM    108  CE2 PHE A 301     209.281 184.265 189.670  1.00 55.43    -0.000 A 
ATOM    109  CD2 PHE A 301     208.367 184.661 188.708  1.00 51.71    -0.004 A 
ENDMDL
REMARK VINA RESULT:      -5.2      2.829      5.152
REMARK  15 active torsions:
REMARK  status: ('A' for Active; 'I' for Inactive)
REMARK    1  A    between atoms: C_3  and  C_23 
REMARK    2  A    between atoms: C_3  and  O_18 
REMARK    3  A    between atoms: C_8  and  N_30 
REMARK    4  A    between atoms: O_12  and  C_22 
REMARK    5  A    between atoms: O_13  and  C_24 
REMARK    6  A    between atoms: O_14  and  P_34 
REMARK    7  A    between atoms: O_15  and  P_35 
REMARK    8  A    between atoms: O_16  and  P_36 
REMARK    9  A    between atoms: O_17  and  P_36 
REMARK   10  A    between atoms: O_18  and  P_34 
REMARK   11  A    between atoms: O_19  and  P_34 
REMARK   12  A    between atoms: O_19  and  P_35 
REMARK   13  A    between atoms: O_20  and  P_35 
REMARK   14  A    between atoms: O_20  and  P_36 
REMARK   15  A    between atoms: C_21  and  N_39 
REMARK  2 active torsions:
REMARK  status: ('A' for Active; 'I' for Inactive)
REMARK    1  A    between atoms: CA   and  CB  
REMARK    2  A    between atoms: CB   and  OG  
REMARK  2 active torsions:
REMARK  status: ('A' for Active; 'I' for Inactive)
REMARK    3  A    between atoms: CA   and  CB  
REMARK    4  A    between atoms: CB   and  OG  
REMARK  1 active torsions:
REMARK  status: ('A' for Active; 'I' for Inactive)
REMARK    5  A    between atoms: CA   and  CB  
REMARK  2 active torsions:
REMARK  status: ('A' for Active; 'I' for Inactive)
REMARK    6  A    between atoms: CA   and  CB  
REMARK    7  A    between atoms: CB   and  OG  
REMARK  3 active torsions:
REMARK  status: ('A' for Active; 'I' for Inactive)
REMARK    8  A    between atoms: CA   and  CB  
REMARK    9  A    between atoms: CB   and  CG  
REMARK   10  A    between atoms: CZ   and  OH  
REMARK  2 active torsions:
REMARK  status: ('A' for Active; 'I' for Inactive)
REMARK   11  A    between atoms: CA   and  CB  
REMARK   12  A    between atoms: CB   and  CG  
REMARK       I    between atoms: CG   and  ND2 
REMARK  2 active torsions:
REMARK  status: ('A' for Active; 'I' for Inactive)
REMARK   13  A    between atoms: CA   and  CB  
REMARK   14  A    between atoms: CB   and  CG  
REMARK  4 active torsions:
REMARK  status: ('A' for Active; 'I' for Inactive)
REMARK   15  A    between atoms: CA   and  CB  
REMARK   16  A    between atoms: CB   and  CG  
REMARK   17  A    between atoms: CG   and  CD  
REMARK   18  A    between atoms: CD   and  NE  
REMARK       I    between atoms: NE   and  CZ  
REMARK       I    between atoms: CZ   and  NH1 
REMARK       I    between atoms: CZ   and  NH2 
REMARK  5 active torsions:
REMARK  status: ('A' for Active; 'I' for Inactive)
REMARK   19  A    between atoms: CA   and  CB  
REMARK   20  A    between atoms: CB   and  CG  
REMARK   21  A    between atoms: CG   and  CD  
REMARK   22  A    between atoms: CD   and  CE  
REMARK   23  A    between atoms: CE   and  NZ  
REMARK  4 active torsions:
REMARK  status: ('A' for Active; 'I' for Inactive)
REMARK   24  A    between atoms: CA   and  CB  
REMARK   25  A    between atoms: CB   and  CG  
REMARK   26  A    between atoms: CG   and  CD  
REMARK   27  A    between atoms: CD   and  NE  
REMARK       I    between atoms: NE   and  CZ  
REMARK       I    between atoms: CZ   and  NH1 
REMARK       I    between atoms: CZ   and  NH2 
REMARK  2 active torsions:
REMARK  status: ('A' for Active; 'I' for Inactive)
REMARK   28  A    between atoms: CA   and  CB  
REMARK   29  A    between atoms: CB   and  CG  
REMARK  3 active torsions:
REMARK  status: ('A' for Active; 'I' for Inactive)
REMARK   30  A    between atoms: CA   and  CB  
REMARK   31  A    between atoms: CB   and  CG  
REMARK   32  A    between atoms: CG   and  CD  
REMARK  1 active torsions:
REMARK  status: ('A' for Active; 'I' for Inactive)
REMARK   33  A    between atoms: CA   and  CB  
REMARK  2 active torsions:
REMARK  status: ('A' for Active; 'I' for Inactive)
REMARK   34  A    between atoms: CA   and  CB  
REMARK   35  A    between atoms: CB   and  CG  
REMARK  2 active torsions:
REMARK  status: ('A' for Active; 'I' for Inactive)
REMARK   36  A    between atoms: CA   and  CB  
REMARK   37  A    between atoms: CB   and  OG1 
REMARK  2 active torsions:
REMARK  status: ('A' for Active; 'I' for Inactive)
REMARK   38  A    between atoms: CA   and  CB  
REMARK   39  A    between atoms: CB   and  CG  
REMARK viewdock state: V
ATOM      1  C   LIG d   1     212.668 179.969 187.539  0.00  0.00     0.203 A 
ATOM      2  C   LIG d   1     210.311 179.374 191.164  0.00  0.00     0.225 A 
ATOM      3  C   LIG d   1     211.344 181.345 190.504  0.00  0.00     0.147 A 
ATOM      4  N   LIG d   1     210.665 178.618 190.100  0.00  0.00    -0.216 NA
ATOM      5  N   LIG d   1     212.573 181.046 188.292  0.00  0.00    -0.231 NA
ATOM      6  N   LIG d   1     210.605 180.667 191.412  0.00  0.00    -0.219 NA
ATOM      7  C   LIG d   1     211.419 179.333 189.244  0.00  0.00     0.167 A 
ATOM      8  C   LIG d   1     211.794 180.662 189.363  0.00  0.00     0.147 A 
ATOM      9  N   LIG d   1     211.974 178.912 188.064  0.00  0.00    -0.285 N 
ATOM     10  C   LIG d   1     211.869 177.570 187.521  0.00  0.00     0.253 C 
ATOM     11  O   LIG d   1     213.122 177.204 186.906  0.00  0.00    -0.346 OA
ATOM     12  C   LIG d   1     212.838 176.607 185.614  0.00  0.00     0.178 C 
ATOM     13  C   LIG d   1     211.346 176.295 185.604  0.00  0.00     0.178 C 
ATOM     14  C   LIG d   1     210.791 177.434 186.437  0.00  0.00     0.195 C 
ATOM     15  C   LIG d   1     213.737 175.395 185.399  0.00  0.00     0.206 C 
ATOM     16  O   LIG d   1     213.833 174.674 186.626  0.00  0.00    -0.284 OA
ATOM     17  P   LIG d   1     215.209 173.888 186.890  0.00  0.00     0.483 P 
ATOM     18  O   LIG d   1     215.420 172.681 186.043  0.00  0.00    -0.227 OA
ATOM     19  O   LIG d   1     215.214 173.656 188.458  0.00  0.00    -0.186 OA
ATOM     20  P   LIG d   1     214.707 174.710 189.528  0.00  0.00     0.492 P 
ATOM     21  O   LIG d   1     215.359 174.717 190.865  0.00  0.00    -0.227 OA
ATOM     22  O   LIG d   1     213.129 174.509 189.521  0.00  0.00    -0.186 OA
ATOM     23  P   LIG d   1     212.210 175.142 190.641  0.00  0.00     0.481 P 
ATOM     24  O   LIG d   1     210.745 175.214 190.404  0.00  0.00    -0.227 OA
ATOM     25  O   LIG d   1     212.862 176.578 190.893  0.00  0.00    -0.302 OA
ATOM     26  H   LIG d   1     212.244 177.170 191.363  0.00  0.00     0.222 HD
ATOM     27  O   LIG d   1     212.621 174.377 191.988  0.00  0.00    -0.302 OA
ATOM     28  H   LIG d   1     213.134 173.575 191.762  0.00  0.00     0.222 HD
ATOM     29  O   LIG d   1     214.858 176.096 188.727  0.00  0.00    -0.302 OA
ATOM     30  H   LIG d   1     215.780 176.426 188.803  0.00  0.00     0.222 HD
ATOM     31  O   LIG d   1     216.282 175.059 186.680  0.00  0.00    -0.302 OA
ATOM     32  H   LIG d   1     215.889 175.862 186.290  0.00  0.00     0.222 HD
ATOM     33  O   LIG d   1     211.057 175.051 186.247  0.00  0.00    -0.386 OA
ATOM     34  H   LIG d   1     210.096 175.077 186.442  0.00  0.00     0.210 HD
ATOM     35  O   LIG d   1     209.495 177.090 186.930  0.00  0.00    -0.385 OA
ATOM     36  H   LIG d   1     209.247 176.244 186.495  0.00  0.00     0.210 HD
ATOM     37  N   LIG d   1     211.638 182.678 190.758  0.00  0.00    -0.341 NA
ATOM     38  H   LIG d   1     211.122 183.321 190.167  0.00  0.00     0.144 HD
ATOM     39  H   LIG d   1     212.632 182.835 190.860  0.00  0.00     0.144 HD
ATOM      1  CA  SER A 272     219.500 182.733 197.389  1.00 76.05     0.189 C 
ATOM      2  CB  SER A 272     218.127 183.058 197.980  1.00 67.27     0.169 C 
ATOM      3  OG  SER A 272     218.255 183.826 199.166  1.00 67.48    -0.380 OA
ATOM      4  HG  SER A 272     217.403 184.080 199.500  1.00  0.00     0.211 HD
ATOM      5  CA  SER A 273     219.476 179.341 195.712  1.00 95.92     0.189 C 
ATOM      6  CB  SER A 273     220.525 178.254 195.952  1.00101.58     0.169 C 
ATOM      7  OG  SER A 273     220.917 177.659 194.726  1.00 85.34    -0.380 OA
ATOM      8  HG  SER A 273     221.822 177.867 194.527  1.00  0.00     0.211 HD
ATOM      9  CA  VAL A 274     216.112 178.448 197.254  1.00 73.25     0.159 C 
ATOM     10  CB  VAL A 274     215.954 178.192 198.764  1.00 64.82     0.029 C 
ATOM     11  CG2 VAL A 274     217.181 178.671 199.519  1.00 83.80     0.002 C 
ATOM     12  CG1 VAL A 274     215.677 176.724 199.036  1.00 74.90     0.002 C 
ATOM     13  CA  SER A 275     214.008 181.464 196.150  1.00 63.68     0.189 C 
ATOM     14  CB  SER A 275     213.202 181.973 197.344  1.00 53.99     0.169 C 
ATOM     15  OG  SER A 275     212.986 180.950 198.301  1.00 69.59    -0.380 OA
ATOM     16  HG  SER A 275     212.072 180.893 198.549  1.00  0.00     0.211 HD
ATOM     17  CA  TYR A 278     208.988 186.676 192.328  1.00 45.93     0.164 C 
ATOM     18  CB  TYR A 278     208.875 188.200 192.364  1.00 46.39     0.058 C 
ATOM     19  CG  TYR A 278     208.940 188.803 193.748  1.00 49.20    -0.020 A 
ATOM     20  CD2 TYR A 278     208.176 188.280 194.784  1.00 46.83    -0.002 A 
ATOM     21  CE2 TYR A 278     208.220 188.822 196.051  1.00 52.67     0.024 A 
ATOM     22  CZ  TYR A 278     209.036 189.902 196.300  1.00 55.35     0.089 A 
ATOM     23  CE1 TYR A 278     209.806 190.442 195.291  1.00 55.53     0.024 A 
ATOM     24  CD1 TYR A 278     209.756 189.893 194.023  1.00 50.19    -0.002 A 
ATOM     25  OH  TYR A 278     209.083 190.443 197.562  1.00 54.18    -0.359 OA
ATOM     26  HH  TYR A 278     209.052 189.870 198.320  1.00  0.00     0.217 HD
ATOM     27  CA  ASN A 279     205.913 184.718 191.231  1.00 49.32     0.169 C 
ATOM     28  CB  ASN A 279     206.291 183.397 190.562  1.00 41.19     0.119 C 
ATOM     29  CG  ASN A 279     205.152 182.811 189.766  1.00 49.81     0.230 C 
ATOM     30  OD1 ASN A 279     205.187 182.794 188.538  1.00 57.93    -0.273 OA
ATOM     31  ND2 ASN A 279     204.130 182.327 190.458  1.00 54.39    -0.369 N 
ATOM     32 2HD2 ASN A 279     204.101 182.341 191.478  1.00  0.00     0.159 HD
ATOM     33 1HD2 ASN A 279     203.360 181.931 189.920  1.00  0.00     0.159 HD
ATOM     34  CA  PHE A 280     202.335 184.098 192.325  1.00 48.50     0.164 C 
ATOM     35  CB  PHE A 280     201.775 185.418 192.860  1.00 46.97     0.058 C 
ATOM     36  CG  PHE A 280     201.741 185.491 194.352  1.00 48.53    -0.020 A 
ATOM     37  CD2 PHE A 280     202.564 186.375 195.036  1.00 47.66    -0.004 A 
ATOM     38  CE2 PHE A 280     202.539 186.436 196.418  1.00 56.11    -0.000 A 
ATOM     39  CZ  PHE A 280     201.689 185.602 197.131  1.00 54.55    -0.000 A 
ATOM     40  CE1 PHE A 280     200.869 184.716 196.459  1.00 58.17    -0.000 A 
ATOM     41  CD1 PHE A 280     200.900 184.661 195.077  1.00 57.66    -0.004 A 
ATOM     42  CA  ARG A 281     199.282 182.045 191.372  1.00 53.90     0.159 C 
ATOM     43  CB  ARG A 281     199.250 180.605 191.908  1.00 43.93     0.034 C 
ATOM     44  CG  ARG A 281     198.098 180.338 192.870  1.00 59.82     0.027 C 
ATOM     45  CD  ARG A 281     198.586 180.179 194.302  1.00 43.25     0.116 C 
ATOM     46  NE  ARG A 281     197.780 179.197 195.022  1.00 49.00    -0.212 N 
ATOM     47  CZ  ARG A 281     198.270 178.310 195.881  1.00 62.89     0.666 C 
ATOM     48  NH1 ARG A 281     199.573 178.270 196.130  1.00 74.80    -0.235 N 
ATOM     49  NH2 ARG A 281     197.457 177.462 196.488  1.00 61.99    -0.235 N 
ATOM     50 2HH1 ARG A 281     200.200 178.924 195.662  1.00  0.00     0.174 HD
ATOM     51 1HH1 ARG A 281     199.949 177.589 196.790  1.00  0.00     0.174 HD
ATOM     52 2HH2 ARG A 281     196.456 177.493 196.295  1.00  0.00     0.174 HD
ATOM     53 1HH2 ARG A 281     197.833 176.782 197.147  1.00  0.00     0.174 HD
ATOM     54  HE  ARG A 281     196.774 179.191 194.853  1.00  0.00     0.178 HD
ATOM     55  CA  LYS A 299     201.486 180.756 187.756  1.00 49.56     0.159 C 
ATOM     56  CB  LYS A 299     202.397 179.560 188.025  1.00 54.03     0.032 C 
ATOM     57  CG  LYS A 299     201.912 178.289 187.347  1.00 58.52     0.004 C 
ATOM     58  CD  LYS A 299     200.597 177.794 187.911  1.00 56.71     0.032 C 
ATOM     59  CE  LYS A 299     199.576 177.613 186.800  1.00 52.70     0.206 C 
ATOM     60  NZ  LYS A 299     199.139 176.202 186.670  1.00 62.42    -0.064 N 
ATOM     61  HZ3 LYS A 299     198.217 176.061 187.082  1.00  0.00     0.275 HD
ATOM     62  HZ2 LYS A 299     198.920 175.970 185.702  1.00  0.00     0.275 HD
ATOM     63  HZ1 LYS A 299     199.822 175.552 187.061  1.00  0.00     0.275 HD
ATOM     64  CA  ARG A 126     203.924 165.784 202.144  1.00149.40     0.159 C 
ATOM     65  CB  ARG A 126     204.246 164.987 200.881  1.00133.40     0.034 C 
ATOM     66  CG  ARG A 126     204.652 165.829 199.683  1.00130.01     0.027 C 
ATOM     67  CD  ARG A 126     206.165 165.970 199.620  1.00131.26     0.116 C 
ATOM     68  NE  ARG A 126     206.640 167.223 200.201  1.00126.38    -0.212 N 
ATOM     69  CZ  ARG A 126     207.317 167.301 201.342  1.00123.75     0.666 C 
ATOM     70  NH1 ARG A 126     207.601 166.199 202.020  1.00121.38    -0.235 N 
ATOM     71  NH2 ARG A 126     207.712 168.479 201.805  1.00134.78    -0.235 N 
ATOM     72 2HH1 ARG A 126     207.297 165.293 201.664  1.00  0.00     0.174 HD
ATOM     73 1HH1 ARG A 126     208.121 166.259 202.896  1.00  0.00     0.174 HD
ATOM     74 2HH2 ARG A 126     207.494 169.327 201.284  1.00  0.00     0.174 HD
ATOM     75 1HH2 ARG A 126     208.233 168.539 202.681  1.00  0.00     0.174 HD
ATOM     76  HE  ARG A 126     206.440 168.089 199.702  1.00  0.00     0.178 HD
ATOM     77  CA  LEU A 127     201.123 168.268 202.807  1.00153.88     0.160 C 
ATOM     78  CB  LEU A 127     200.758 168.860 204.171  1.00147.20     0.032 C 
ATOM     79  CG  LEU A 127     199.433 168.447 204.816  1.00145.17     0.002 C 
ATOM     80  CD1 LEU A 127     198.279 168.652 203.839  1.00 88.14     0.000 C 
ATOM     81  CD2 LEU A 127     199.487 167.002 205.290  1.00139.20     0.000 C 
ATOM     82  CA  GLU A 156     200.026 171.816 187.502  1.00 66.36     0.160 C 
ATOM     83  CB  GLU A 156     200.353 173.154 188.166  1.00 55.62     0.043 C 
ATOM     84  CG  GLU A 156     200.649 173.146 189.644  1.00 70.57     0.100 C 
ATOM     85  CD  GLU A 156     199.430 173.573 190.453  1.00 81.66     0.185 C 
ATOM     86  OE1 GLU A 156     198.387 172.888 190.375  1.00 65.56    -0.647 OA
ATOM     87  OE2 GLU A 156     199.521 174.586 191.178  1.00 89.99    -0.647 OA
ATOM     88  CA  VAL A 157     203.226 170.537 185.857  1.00 71.99     0.159 C 
ATOM     89  CB  VAL A 157     203.064 169.542 184.685  1.00 75.94     0.029 C 
ATOM     90  CG1 VAL A 157     203.739 168.225 185.007  1.00 76.66     0.002 C 
ATOM     91  CG2 VAL A 157     201.605 169.321 184.359  1.00 67.05     0.002 C 
ATOM     92  CA  ASP A 158     206.666 172.211 185.854  1.00 94.88     0.170 C 
ATOM     93  CB  ASP A 158     206.964 172.988 187.135  1.00104.96     0.129 C 
ATOM     94  CG  ASP A 158     206.362 172.339 188.366  1.00119.19     0.188 C 
ATOM     95  OD1 ASP A 158     207.014 171.449 188.955  1.00111.95    -0.647 OA
ATOM     96  OD2 ASP A 158     205.237 172.727 188.746  1.00131.05    -0.647 OA
ATOM     97  CA  THR A 235     212.747 184.477 187.590  1.00 53.73     0.186 C 
ATOM     98  CB  THR A 235     214.055 184.661 188.369  1.00 53.83     0.140 C 
ATOM     99  CG2 THR A 235     213.989 185.888 189.251  1.00 69.14     0.034 C 
ATOM    100  OG1 THR A 235     214.287 183.505 189.186  1.00 58.73    -0.382 OA
ATOM    101  HG1 THR A 235     214.887 182.920 188.738  1.00  0.00     0.210 HD
ATOM    102  CA  PHE A 301     206.276 185.417 186.926  1.00 52.37     0.164 C 
ATOM    103  CB  PHE A 301     207.456 184.607 186.381  1.00 49.06     0.058 C 
ATOM    104  CG  PHE A 301     208.582 185.432 185.846  1.00 51.77    -0.020 A 
ATOM    105  CD1 PHE A 301     209.167 185.130 184.625  1.00 53.15    -0.004 A 
ATOM    106  CE1 PHE A 301     210.205 185.901 184.126  1.00 57.48    -0.000 A 
ATOM    107  CZ  PHE A 301     210.649 186.998 184.833  1.00 55.39    -0.000 A 
ATOM    108  CE2 PHE A 301     210.057 187.324 186.042  1.00 55.43    -0.000 A 
ATOM    109  CD2 PHE A 301     209.025 186.547 186.540  1.00 51.71    -0.004 A 
ENDMDL
REMARK VINA RESULT:      -1.5      2.728      4.590
REMARK  15 active torsions:
REMARK  status: ('A' for Active; 'I' for Inactive)
REMARK    1  A    between atoms: C_3  and  C_23 
REMARK    2  A    between atoms: C_3  and  O_18 
REMARK    3  A    between atoms: C_8  and  N_30 
REMARK    4  A    between atoms: O_12  and  C_22 
REMARK    5  A    between atoms: O_13  and  C_24 
REMARK    6  A    between atoms: O_14  and  P_34 
REMARK    7  A    between atoms: O_15  and  P_35 
REMARK    8  A    between atoms: O_16  and  P_36 
REMARK    9  A    between atoms: O_17  and  P_36 
REMARK   10  A    between atoms: O_18  and  P_34 
REMARK   11  A    between atoms: O_19  and  P_34 
REMARK   12  A    between atoms: O_19  and  P_35 
REMARK   13  A    between atoms: O_20  and  P_35 
REMARK   14  A    between atoms: O_20  and  P_36 
REMARK   15  A    between atoms: C_21  and  N_39 
REMARK  2 active torsions:
REMARK  status: ('A' for Active; 'I' for Inactive)
REMARK    1  A    between atoms: CA   and  CB  
REMARK    2  A    between atoms: CB   and  OG  
REMARK  2 active torsions:
REMARK  status: ('A' for Active; 'I' for Inactive)
REMARK    3  A    between atoms: CA   and  CB  
REMARK    4  A    between atoms: CB   and  OG  
REMARK  1 active torsions:
REMARK  status: ('A' for Active; 'I' for Inactive)
REMARK    5  A    between atoms: CA   and  CB  
REMARK  2 active torsions:
REMARK  status: ('A' for Active; 'I' for Inactive)
REMARK    6  A    between atoms: CA   and  CB  
REMARK    7  A    between atoms: CB   and  OG  
REMARK  3 active torsions:
REMARK  status: ('A' for Active; 'I' for Inactive)
REMARK    8  A    between atoms: CA   and  CB  
REMARK    9  A    between atoms: CB   and  CG  
REMARK   10  A    between atoms: CZ   and  OH  
REMARK  2 active torsions:
REMARK  status: ('A' for Active; 'I' for Inactive)
REMARK   11  A    between atoms: CA   and  CB  
REMARK   12  A    between atoms: CB   and  CG  
REMARK       I    between atoms: CG   and  ND2 
REMARK  2 active torsions:
REMARK  status: ('A' for Active; 'I' for Inactive)
REMARK   13  A    between atoms: CA   and  CB  
REMARK   14  A    between atoms: CB   and  CG  
REMARK  4 active torsions:
REMARK  status: ('A' for Active; 'I' for Inactive)
REMARK   15  A    between atoms: CA   and  CB  
REMARK   16  A    between atoms: CB   and  CG  
REMARK   17  A    between atoms: CG   and  CD  
REMARK   18  A    between atoms: CD   and  NE  
REMARK       I    between atoms: NE   and  CZ  
REMARK       I    between atoms: CZ   and  NH1 
REMARK       I    between atoms: CZ   and  NH2 
REMARK  5 active torsions:
REMARK  status: ('A' for Active; 'I' for Inactive)
REMARK   19  A    between atoms: CA   and  CB  
REMARK   20  A    between atoms: CB   and  CG  
REMARK   21  A    between atoms: CG   and  CD  
REMARK   22  A    between atoms: CD   and  CE  
REMARK   23  A    between atoms: CE   and  NZ  
REMARK  4 active torsions:
REMARK  status: ('A' for Active; 'I' for Inactive)
REMARK   24  A    between atoms: CA   and  CB  
REMARK   25  A    between atoms: CB   and  CG  
REMARK   26  A    between atoms: CG   and  CD  
REMARK   27  A    between atoms: CD   and  NE  
REMARK       I    between atoms: NE   and  CZ  
REMARK       I    between atoms: CZ   and  NH1 
REMARK       I    between atoms: CZ   and  NH2 
REMARK  2 active torsions:
REMARK  status: ('A' for Active; 'I' for Inactive)
REMARK   28  A    between atoms: CA   and  CB  
REMARK   29  A    between atoms: CB   and  CG  
REMARK  3 active torsions:
REMARK  status: ('A' for Active; 'I' for Inactive)
REMARK   30  A    between atoms: CA   and  CB  
REMARK   31  A    between atoms: CB   and  CG  
REMARK   32  A    between atoms: CG   and  CD  
REMARK  1 active torsions:
REMARK  status: ('A' for Active; 'I' for Inactive)
REMARK   33  A    between atoms: CA   and  CB  
REMARK  2 active torsions:
REMARK  status: ('A' for Active; 'I' for Inactive)
REMARK   34  A    between atoms: CA   and  CB  
REMARK   35  A    between atoms: CB   and  CG  
REMARK  2 active torsions:
REMARK  status: ('A' for Active; 'I' for Inactive)
REMARK   36  A    between atoms: CA   and  CB  
REMARK   37  A    between atoms: CB   and  OG1 
REMARK  2 active torsions:
REMARK  status: ('A' for Active; 'I' for Inactive)
REMARK   38  A    between atoms: CA   and  CB  
REMARK   39  A    between atoms: CB   and  CG  
REMARK viewdock state: V
ATOM      1  C   LIG d   1     210.699 178.302 187.850  0.00  0.00     0.203 A 
ATOM      2  C   LIG d   1     214.715 179.837 188.608  0.00  0.00     0.225 A 
ATOM      3  C   LIG d   1     213.533 180.000 186.616  0.00  0.00     0.147 A 
ATOM      4  N   LIG d   1     213.767 179.196 189.329  0.00  0.00    -0.216 NA
ATOM      5  N   LIG d   1     211.242 178.901 186.810  0.00  0.00    -0.231 NA
ATOM      6  N   LIG d   1     214.663 180.239 187.320  0.00  0.00    -0.219 NA
ATOM      7  C   LIG d   1     212.679 178.961 188.573  0.00  0.00     0.167 A 
ATOM      8  C   LIG d   1     212.481 179.318 187.249  0.00  0.00     0.147 A 
ATOM      9  N   LIG d   1     211.522 178.326 188.945  0.00  0.00    -0.285 N 
ATOM     10  C   LIG d   1     211.266 177.750 190.253  0.00  0.00     0.253 C 
ATOM     11  O   LIG d   1     210.429 176.584 190.106  0.00  0.00    -0.346 OA
ATOM     12  C   LIG d   1     209.375 176.652 191.100  0.00  0.00     0.178 C 
ATOM     13  C   LIG d   1     209.795 177.725 192.099  0.00  0.00     0.178 C 
ATOM     14  C   LIG d   1     210.529 178.704 191.203  0.00  0.00     0.195 C 
ATOM     15  C   LIG d   1     209.156 175.273 191.713  0.00  0.00     0.206 C 
ATOM     16  O   LIG d   1     207.996 175.321 192.541  0.00  0.00    -0.284 OA
ATOM     17  P   LIG d   1     206.705 174.522 192.012  0.00  0.00     0.483 P 
ATOM     18  O   LIG d   1     205.507 175.364 191.741  0.00  0.00    -0.227 OA
ATOM     19  O   LIG d   1     206.522 173.361 193.077  0.00  0.00    -0.186 OA
ATOM     20  P   LIG d   1     205.548 172.122 192.904  0.00  0.00     0.492 P 
ATOM     21  O   LIG d   1     204.528 171.882 193.959  0.00  0.00    -0.227 OA
ATOM     22  O   LIG d   1     206.543 170.916 192.605  0.00  0.00    -0.186 OA
ATOM     23  P   LIG d   1     207.915 170.765 193.377  0.00  0.00     0.481 P 
ATOM     24  O   LIG d   1     207.915 170.876 194.859  0.00  0.00    -0.227 OA
ATOM     25  O   LIG d   1     208.857 171.850 192.681  0.00  0.00    -0.302 OA
ATOM     26  H   LIG d   1     209.228 172.471 193.337  0.00  0.00     0.222 HD
ATOM     27  O   LIG d   1     208.550 169.404 192.820  0.00  0.00    -0.302 OA
ATOM     28  H   LIG d   1     209.468 169.570 192.526  0.00  0.00     0.222 HD
ATOM     29  O   LIG d   1     204.923 172.390 191.447  0.00  0.00    -0.302 OA
ATOM     30  H   LIG d   1     205.246 173.250 191.100  0.00  0.00     0.222 HD
ATOM     31  O   LIG d   1     207.307 173.767 190.734  0.00  0.00    -0.302 OA
ATOM     32  H   LIG d   1     207.637 174.385 190.055  0.00  0.00     0.222 HD
ATOM     33  O   LIG d   1     210.696 177.214 193.084  0.00  0.00    -0.386 OA
ATOM     34  H   LIG d   1     210.125 176.838 193.788  0.00  0.00     0.210 HD
ATOM     35  O   LIG d   1     211.383 179.536 191.989  0.00  0.00    -0.385 OA
ATOM     36  H   LIG d   1     212.058 179.901 191.375  0.00  0.00     0.210 HD
ATOM     37  N   LIG d   1     213.480 180.422 185.294  0.00  0.00    -0.341 NA
ATOM     38  H   LIG d   1     212.658 180.090 184.801  0.00  0.00     0.144 HD
ATOM     39  H   LIG d   1     214.373 180.326 184.829  0.00  0.00     0.144 HD
ATOM      1  CA  SER A 272     219.500 182.733 197.389  1.00 76.05     0.189 C 
ATOM      2  CB  SER A 272     218.127 183.058 197.980  1.00 67.27     0.169 C 
ATOM      3  OG  SER A 272     217.394 183.914 197.117  1.00 67.48    -0.380 OA
ATOM      4  HG  SER A 272     216.469 183.698 197.132  1.00  0.00     0.211 HD
ATOM      5  CA  SER A 273     219.476 179.341 195.712  1.00 95.92     0.189 C 
ATOM      6  CB  SER A 273     220.525 178.254 195.952  1.00101.58     0.169 C 
ATOM      7  OG  SER A 273     221.160 177.896 194.735  1.00 85.34    -0.380 OA
ATOM      8  HG  SER A 273     221.156 176.953 194.621  1.00  0.00     0.211 HD
ATOM      9  CA  VAL A 274     216.112 178.448 197.254  1.00 73.25     0.159 C 
ATOM     10  CB  VAL A 274     215.954 178.192 198.764  1.00 64.82     0.029 C 
ATOM     11  CG2 VAL A 274     215.224 179.346 199.429  1.00 83.80     0.002 C 
ATOM     12  CG1 VAL A 274     217.304 177.945 199.413  1.00 74.90     0.002 C 
ATOM     13  CA  SER A 275     214.008 181.464 196.150  1.00 63.68     0.189 C 
ATOM     14  CB  SER A 275     213.202 181.973 197.344  1.00 53.99     0.169 C 
ATOM     15  OG  SER A 275     214.040 182.286 198.442  1.00 69.59    -0.380 OA
ATOM     16  HG  SER A 275     214.412 183.156 198.360  1.00  0.00     0.211 HD
ATOM     17  CA  TYR A 278     208.988 186.676 192.328  1.00 45.93     0.164 C 
ATOM     18  CB  TYR A 278     208.875 188.200 192.364  1.00 46.39     0.058 C 
ATOM     19  CG  TYR A 278     209.004 188.808 193.742  1.00 49.20    -0.020 A 
ATOM     20  CD2 TYR A 278     209.902 188.284 194.664  1.00 46.83    -0.002 A 
ATOM     21  CE2 TYR A 278     210.027 188.824 195.927  1.00 52.67     0.024 A 
ATOM     22  CZ  TYR A 278     209.250 189.902 196.285  1.00 55.35     0.089 A 
ATOM     23  CE1 TYR A 278     208.351 190.442 195.390  1.00 55.53     0.024 A 
ATOM     24  CD1 TYR A 278     208.231 189.895 194.126  1.00 50.19    -0.002 A 
ATOM     25  OH  TYR A 278     209.375 190.443 197.542  1.00 54.18    -0.359 OA
ATOM     26  HH  TYR A 278     209.177 191.361 197.681  1.00  0.00     0.217 HD
ATOM     27  CA  ASN A 279     205.913 184.718 191.231  1.00 49.32     0.169 C 
ATOM     28  CB  ASN A 279     206.291 183.397 190.562  1.00 41.19     0.119 C 
ATOM     29  CG  ASN A 279     205.158 182.820 189.751  1.00 49.81     0.230 C 
ATOM     30  OD1 ASN A 279     205.211 182.797 188.524  1.00 57.93    -0.273 OA
ATOM     31  ND2 ASN A 279     204.120 182.350 190.430  1.00 54.39    -0.369 N 
ATOM     32 2HD2 ASN A 279     204.076 182.369 191.449  1.00  0.00     0.159 HD
ATOM     33 1HD2 ASN A 279     203.354 181.960 189.882  1.00  0.00     0.159 HD
ATOM     34  CA  PHE A 280     202.335 184.098 192.325  1.00 48.50     0.164 C 
ATOM     35  CB  PHE A 280     201.775 185.418 192.860  1.00 46.97     0.058 C 
ATOM     36  CG  PHE A 280     201.814 185.523 194.350  1.00 48.53    -0.020 A 
ATOM     37  CD2 PHE A 280     202.668 186.420 194.975  1.00 47.66    -0.004 A 
ATOM     38  CE2 PHE A 280     202.710 186.510 196.354  1.00 56.11    -0.000 A 
ATOM     39  CZ  PHE A 280     201.896 185.692 197.125  1.00 54.55    -0.000 A 
ATOM     40  CE1 PHE A 280     201.044 184.793 196.513  1.00 58.17    -0.000 A 
ATOM     41  CD1 PHE A 280     201.008 184.708 195.132  1.00 57.66    -0.004 A 
ATOM     42  CA  ARG A 281     199.282 182.045 191.372  1.00 53.90     0.159 C 
ATOM     43  CB  ARG A 281     199.250 180.605 191.908  1.00 43.93     0.034 C 
ATOM     44  CG  ARG A 281     198.075 180.326 192.839  1.00 59.82     0.027 C 
ATOM     45  CD  ARG A 281     198.503 180.312 194.298  1.00 43.25     0.116 C 
ATOM     46  NE  ARG A 281     197.906 181.425 195.028  1.00 49.00    -0.212 N 
ATOM     47  CZ  ARG A 281     198.408 181.947 196.142  1.00 62.89     0.666 C 
ATOM     48  NH1 ARG A 281     199.522 181.453 196.669  1.00 74.80    -0.235 N 
ATOM     49  NH2 ARG A 281     197.794 182.959 196.730  1.00 61.99    -0.235 N 
ATOM     50 2HH1 ARG A 281     199.996 180.672 196.215  1.00  0.00     0.174 HD
ATOM     51 1HH1 ARG A 281     199.908 181.854 197.523  1.00  0.00     0.174 HD
ATOM     52 2HH2 ARG A 281     196.938 183.338 196.325  1.00  0.00     0.174 HD
ATOM     53 1HH2 ARG A 281     198.180 183.360 197.585  1.00  0.00     0.174 HD
ATOM     54  HE  ARG A 281     197.045 181.829 194.660  1.00  0.00     0.178 HD
ATOM     55  CA  LYS A 299     201.486 180.756 187.756  1.00 49.56     0.159 C 
ATOM     56  CB  LYS A 299     202.397 179.560 188.025  1.00 54.03     0.032 C 
ATOM     57  CG  LYS A 299     201.879 178.275 187.399  1.00 58.52     0.004 C 
ATOM     58  CD  LYS A 299     200.643 177.746 188.095  1.00 56.71     0.032 C 
ATOM     59  CE  LYS A 299     199.543 177.463 187.086  1.00 52.70     0.206 C 
ATOM     60  NZ  LYS A 299     199.848 176.279 186.247  1.00 62.42    -0.064 N 
ATOM     61  HZ3 LYS A 299     200.647 176.453 185.638  1.00  0.00     0.275 HD
ATOM     62  HZ2 LYS A 299     200.234 175.519 186.807  1.00  0.00     0.275 HD
ATOM     63  HZ1 LYS A 299     199.036 175.969 185.713  1.00  0.00     0.275 HD
ATOM     64  CA  ARG A 126     203.924 165.784 202.144  1.00149.40     0.159 C 
ATOM     65  CB  ARG A 126     204.246 164.987 200.881  1.00133.40     0.034 C 
ATOM     66  CG  ARG A 126     204.441 165.828 199.630  1.00130.01     0.027 C 
ATOM     67  CD  ARG A 126     205.824 166.459 199.624  1.00131.26     0.116 C 
ATOM     68  NE  ARG A 126     205.917 167.606 198.725  1.00126.38    -0.212 N 
ATOM     69  CZ  ARG A 126     207.064 168.126 198.302  1.00123.75     0.666 C 
ATOM     70  NH1 ARG A 126     208.215 167.598 198.695  1.00121.38    -0.235 N 
ATOM     71  NH2 ARG A 126     207.065 169.172 197.487  1.00134.78    -0.235 N 
ATOM     72 2HH1 ARG A 126     208.214 166.793 199.322  1.00  0.00     0.174 HD
ATOM     73 1HH1 ARG A 126     209.096 167.997 198.370  1.00  0.00     0.174 HD
ATOM     74 2HH2 ARG A 126     206.180 169.578 197.184  1.00  0.00     0.174 HD
ATOM     75 1HH2 ARG A 126     207.946 169.570 197.162  1.00  0.00     0.174 HD
ATOM     76  HE  ARG A 126     205.049 168.033 198.402  1.00  0.00     0.178 HD
ATOM     77  CA  LEU A 127     201.123 168.268 202.807  1.00153.88     0.160 C 
ATOM     78  CB  LEU A 127     200.758 168.860 204.171  1.00147.20     0.032 C 
ATOM     79  CG  LEU A 127     199.446 168.425 204.829  1.00145.17     0.002 C 
ATOM     80  CD1 LEU A 127     198.260 168.798 203.946  1.00 88.14     0.000 C 
ATOM     81  CD2 LEU A 127     199.454 166.932 205.120  1.00139.20     0.000 C 
ATOM     82  CA  GLU A 156     200.026 171.816 187.502  1.00 66.36     0.160 C 
ATOM     83  CB  GLU A 156     200.353 173.154 188.166  1.00 55.62     0.043 C 
ATOM     84  CG  GLU A 156     199.437 173.631 189.264  1.00 70.57     0.100 C 
ATOM     85  CD  GLU A 156     199.949 173.204 190.634  1.00 81.66     0.185 C 
ATOM     86  OE1 GLU A 156     200.590 174.029 191.321  1.00 65.56    -0.647 OA
ATOM     87  OE2 GLU A 156     199.699 172.045 191.030  1.00 89.99    -0.647 OA
ATOM     88  CA  VAL A 157     203.226 170.537 185.857  1.00 71.99     0.159 C 
ATOM     89  CB  VAL A 157     203.064 169.542 184.685  1.00 75.94     0.029 C 
ATOM     90  CG1 VAL A 157     203.767 168.236 184.993  1.00 76.66     0.002 C 
ATOM     91  CG2 VAL A 157     201.604 169.296 184.380  1.00 67.05     0.002 C 
ATOM     92  CA  ASP A 158     206.666 172.211 185.854  1.00 94.88     0.170 C 
ATOM     93  CB  ASP A 158     206.964 172.988 187.135  1.00104.96     0.129 C 
ATOM     94  CG  ASP A 158     206.250 172.417 188.344  1.00119.19     0.188 C 
ATOM     95  OD1 ASP A 158     205.150 172.908 188.678  1.00111.95    -0.647 OA
ATOM     96  OD2 ASP A 158     206.790 171.471 188.956  1.00131.05    -0.647 OA
ATOM     97  CA  THR A 235     212.747 184.477 187.590  1.00 53.73     0.186 C 
ATOM     98  CB  THR A 235     214.055 184.661 188.369  1.00 53.83     0.140 C 
ATOM     99  CG2 THR A 235     214.338 183.456 189.238  1.00 69.14     0.034 C 
ATOM    100  OG1 THR A 235     215.137 184.840 187.444  1.00 58.73    -0.382 OA
ATOM    101  HG1 THR A 235     215.149 185.743 187.148  1.00  0.00     0.210 HD
ATOM    102  CA  PHE A 301     206.276 185.417 186.926  1.00 52.37     0.164 C 
ATOM    103  CB  PHE A 301     207.456 184.607 186.381  1.00 49.06     0.058 C 
ATOM    104  CG  PHE A 301     208.434 184.158 187.419  1.00 51.77    -0.020 A 
ATOM    105  CD1 PHE A 301     209.457 183.278 187.098  1.00 53.15    -0.004 A 
ATOM    106  CE1 PHE A 301     210.368 182.868 188.058  1.00 57.48    -0.000 A 
ATOM    107  CZ  PHE A 301     210.279 183.358 189.344  1.00 55.39    -0.000 A 
ATOM    108  CE2 PHE A 301     209.276 184.255 189.671  1.00 55.43    -0.000 A 
ATOM    109  CD2 PHE A 301     208.364 184.656 188.710  1.00 51.71    -0.004 A 
ENDMDL
REMARK VINA RESULT:       1.3      3.841      6.746
REMARK  15 active torsions:
REMARK  status: ('A' for Active; 'I' for Inactive)
REMARK    1  A    between atoms: C_3  and  C_23 
REMARK    2  A    between atoms: C_3  and  O_18 
REMARK    3  A    between atoms: C_8  and  N_30 
REMARK    4  A    between atoms: O_12  and  C_22 
REMARK    5  A    between atoms: O_13  and  C_24 
REMARK    6  A    between atoms: O_14  and  P_34 
REMARK    7  A    between atoms: O_15  and  P_35 
REMARK    8  A    between atoms: O_16  and  P_36 
REMARK    9  A    between atoms: O_17  and  P_36 
REMARK   10  A    between atoms: O_18  and  P_34 
REMARK   11  A    between atoms: O_19  and  P_34 
REMARK   12  A    between atoms: O_19  and  P_35 
REMARK   13  A    between atoms: O_20  and  P_35 
REMARK   14  A    between atoms: O_20  and  P_36 
REMARK   15  A    between atoms: C_21  and  N_39 
REMARK  2 active torsions:
REMARK  status: ('A' for Active; 'I' for Inactive)
REMARK    1  A    between atoms: CA   and  CB  
REMARK    2  A    between atoms: CB   and  OG  
REMARK  2 active torsions:
REMARK  status: ('A' for Active; 'I' for Inactive)
REMARK    3  A    between atoms: CA   and  CB  
REMARK    4  A    between atoms: CB   and  OG  
REMARK  1 active torsions:
REMARK  status: ('A' for Active; 'I' for Inactive)
REMARK    5  A    between atoms: CA   and  CB  
REMARK  2 active torsions:
REMARK  status: ('A' for Active; 'I' for Inactive)
REMARK    6  A    between atoms: CA   and  CB  
REMARK    7  A    between atoms: CB   and  OG  
REMARK  3 active torsions:
REMARK  status: ('A' for Active; 'I' for Inactive)
REMARK    8  A    between atoms: CA   and  CB  
REMARK    9  A    between atoms: CB   and  CG  
REMARK   10  A    between atoms: CZ   and  OH  
REMARK  2 active torsions:
REMARK  status: ('A' for Active; 'I' for Inactive)
REMARK   11  A    between atoms: CA   and  CB  
REMARK   12  A    between atoms: CB   and  CG  
REMARK       I    between atoms: CG   and  ND2 
REMARK  2 active torsions:
REMARK  status: ('A' for Active; 'I' for Inactive)
REMARK   13  A    between atoms: CA   and  CB  
REMARK   14  A    between atoms: CB   and  CG  
REMARK  4 active torsions:
REMARK  status: ('A' for Active; 'I' for Inactive)
REMARK   15  A    between atoms: CA   and  CB  
REMARK   16  A    between atoms: CB   and  CG  
REMARK   17  A    between atoms: CG   and  CD  
REMARK   18  A    between atoms: CD   and  NE  
REMARK       I    between atoms: NE   and  CZ  
REMARK       I    between atoms: CZ   and  NH1 
REMARK       I    between atoms: CZ   and  NH2 
REMARK  5 active torsions:
REMARK  status: ('A' for Active; 'I' for Inactive)
REMARK   19  A    between atoms: CA   and  CB  
REMARK   20  A    between atoms: CB   and  CG  
REMARK   21  A    between atoms: CG   and  CD  
REMARK   22  A    between atoms: CD   and  CE  
REMARK   23  A    between atoms: CE   and  NZ  
REMARK  4 active torsions:
REMARK  status: ('A' for Active; 'I' for Inactive)
REMARK   24  A    between atoms: CA   and  CB  
REMARK   25  A    between atoms: CB   and  CG  
REMARK   26  A    between atoms: CG   and  CD  
REMARK   27  A    between atoms: CD   and  NE  
REMARK       I    between atoms: NE   and  CZ  
REMARK       I    between atoms: CZ   and  NH1 
REMARK       I    between atoms: CZ   and  NH2 
REMARK  2 active torsions:
REMARK  status: ('A' for Active; 'I' for Inactive)
REMARK   28  A    between atoms: CA   and  CB  
REMARK   29  A    between atoms: CB   and  CG  
REMARK  3 active torsions:
REMARK  status: ('A' for Active; 'I' for Inactive)
REMARK   30  A    between atoms: CA   and  CB  
REMARK   31  A    between atoms: CB   and  CG  
REMARK   32  A    between atoms: CG   and  CD  
REMARK  1 active torsions:
REMARK  status: ('A' for Active; 'I' for Inactive)
REMARK   33  A    between atoms: CA   and  CB  
REMARK  2 active torsions:
REMARK  status: ('A' for Active; 'I' for Inactive)
REMARK   34  A    between atoms: CA   and  CB  
REMARK   35  A    between atoms: CB   and  CG  
REMARK  2 active torsions:
REMARK  status: ('A' for Active; 'I' for Inactive)
REMARK   36  A    between atoms: CA   and  CB  
REMARK   37  A    between atoms: CB   and  OG1 
REMARK  2 active torsions:
REMARK  status: ('A' for Active; 'I' for Inactive)
REMARK   38  A    between atoms: CA   and  CB  
REMARK   39  A    between atoms: CB   and  CG  
REMARK viewdock state: D
ATOM      1  C   LIG d   1     208.088 175.122 196.400  0.00  0.00     0.203 A 
ATOM      2  C   LIG d   1     210.046 177.458 193.275  0.00  0.00     0.225 A 
ATOM      3  C   LIG d   1     210.331 177.713 195.565  0.00  0.00     0.147 A 
ATOM      4  N   LIG d   1     209.178 176.421 193.315  0.00  0.00    -0.216 NA
ATOM      5  N   LIG d   1     208.904 176.048 196.863  0.00  0.00    -0.231 NA
ATOM      6  N   LIG d   1     210.621 178.113 194.305  0.00  0.00    -0.219 NA
ATOM      7  C   LIG d   1     208.906 176.083 194.588  0.00  0.00     0.167 A 
ATOM      8  C   LIG d   1     209.422 176.656 195.739  0.00  0.00     0.147 A 
ATOM      9  N   LIG d   1     208.067 175.094 195.031  0.00  0.00    -0.285 N 
ATOM     10  C   LIG d   1     207.275 174.224 194.180  0.00  0.00     0.253 C 
ATOM     11  O   LIG d   1     207.843 172.898 194.192  0.00  0.00    -0.346 OA
ATOM     12  C   LIG d   1     207.906 172.417 192.825  0.00  0.00     0.178 C 
ATOM     13  C   LIG d   1     207.030 173.353 191.999  0.00  0.00     0.178 C 
ATOM     14  C   LIG d   1     207.240 174.674 192.713  0.00  0.00     0.195 C 
ATOM     15  C   LIG d   1     207.484 170.952 192.775  0.00  0.00     0.206 C 
ATOM     16  O   LIG d   1     208.292 170.277 191.813  0.00  0.00    -0.284 OA
ATOM     17  P   LIG d   1     209.520 169.415 192.388  0.00  0.00     0.483 P 
ATOM     18  O   LIG d   1     209.928 169.746 193.781  0.00  0.00    -0.227 OA
ATOM     19  O   LIG d   1     210.638 169.567 191.273  0.00  0.00    -0.186 OA
ATOM     20  P   LIG d   1     210.351 169.754 189.726  0.00  0.00     0.492 P 
ATOM     21  O   LIG d   1     210.341 171.137 189.179  0.00  0.00    -0.227 OA
ATOM     22  O   LIG d   1     209.027 168.902 189.494  0.00  0.00    -0.186 OA
ATOM     23  P   LIG d   1     208.886 167.909 188.272  0.00  0.00     0.481 P 
ATOM     24  O   LIG d   1     209.463 166.544 188.392  0.00  0.00    -0.227 OA
ATOM     25  O   LIG d   1     209.504 168.730 187.049  0.00  0.00    -0.302 OA
ATOM     26  H   LIG d   1     210.151 169.393 187.358  0.00  0.00     0.222 HD
ATOM     27  O   LIG d   1     207.328 167.934 187.902  0.00  0.00    -0.302 OA
ATOM     28  H   LIG d   1     206.922 168.748 188.261  0.00  0.00     0.222 HD
ATOM     29  O   LIG d   1     211.465 168.803 189.062  0.00  0.00    -0.302 OA
ATOM     30  H   LIG d   1     211.700 168.081 189.686  0.00  0.00     0.222 HD
ATOM     31  O   LIG d   1     208.979 167.923 192.176  0.00  0.00    -0.302 OA
ATOM     32  H   LIG d   1     209.518 167.415 191.541  0.00  0.00     0.222 HD
ATOM     33  O   LIG d   1     205.649 172.990 192.067  0.00  0.00    -0.386 OA
ATOM     34  H   LIG d   1     205.338 172.978 191.137  0.00  0.00     0.210 HD
ATOM     35  O   LIG d   1     206.178 175.574 192.393  0.00  0.00    -0.385 OA
ATOM     36  H   LIG d   1     206.414 176.438 192.799  0.00  0.00     0.210 HD
ATOM     37  N   LIG d   1     210.931 178.383 196.623  0.00  0.00    -0.341 NA
ATOM     38  H   LIG d   1     210.762 179.383 196.609  0.00  0.00     0.144 HD
ATOM     39  H   LIG d   1     211.881 178.073 196.777  0.00  0.00     0.144 HD
ATOM      1  CA  SER A 272     219.500 182.733 197.389  1.00 76.05     0.189 C 
ATOM      2  CB  SER A 272     218.127 183.058 197.980  1.00 67.27     0.169 C 
ATOM      3  OG  SER A 272     218.256 183.814 199.174  1.00 67.48    -0.380 OA
ATOM      4  HG  SER A 272     217.865 183.356 199.909  1.00  0.00     0.211 HD
ATOM      5  CA  SER A 273     219.476 179.341 195.712  1.00 95.92     0.189 C 
ATOM      6  CB  SER A 273     220.525 178.254 195.952  1.00101.58     0.169 C 
ATOM      7  OG  SER A 273     221.162 177.897 194.736  1.00 85.34    -0.380 OA
ATOM      8  HG  SER A 273     220.635 177.271 194.253  1.00  0.00     0.211 HD
ATOM      9  CA  VAL A 274     216.112 178.448 197.254  1.00 73.25     0.159 C 
ATOM     10  CB  VAL A 274     215.954 178.192 198.764  1.00 64.82     0.029 C 
ATOM     11  CG2 VAL A 274     217.180 178.673 199.519  1.00 83.80     0.002 C 
ATOM     12  CG1 VAL A 274     215.679 176.724 199.036  1.00 74.90     0.002 C 
ATOM     13  CA  SER A 275     214.008 181.464 196.150  1.00 63.68     0.189 C 
ATOM     14  CB  SER A 275     213.202 181.973 197.344  1.00 53.99     0.169 C 
ATOM     15  OG  SER A 275     213.026 180.963 198.322  1.00 69.59    -0.380 OA
ATOM     16  HG  SER A 275     213.660 181.043 199.024  1.00  0.00     0.211 HD
ATOM     17  CA  TYR A 278     208.988 186.676 192.328  1.00 45.93     0.164 C 
ATOM     18  CB  TYR A 278     208.875 188.200 192.364  1.00 46.39     0.058 C 
ATOM     19  CG  TYR A 278     208.940 188.803 193.748  1.00 49.20    -0.020 A 
ATOM     20  CD2 TYR A 278     208.175 188.280 194.784  1.00 46.83    -0.002 A 
ATOM     21  CE2 TYR A 278     208.219 188.823 196.051  1.00 52.67     0.024 A 
ATOM     22  CZ  TYR A 278     209.036 189.902 196.300  1.00 55.35     0.089 A 
ATOM     23  CE1 TYR A 278     209.807 190.441 195.291  1.00 55.53     0.024 A 
ATOM     24  CD1 TYR A 278     209.756 189.892 194.023  1.00 50.19    -0.002 A 
ATOM     25  OH  TYR A 278     209.082 190.443 197.562  1.00 54.18    -0.359 OA
ATOM     26  HH  TYR A 278     209.247 189.879 198.309  1.00  0.00     0.217 HD
ATOM     27  CA  ASN A 279     205.913 184.718 191.231  1.00 49.32     0.169 C 
ATOM     28  CB  ASN A 279     206.291 183.397 190.562  1.00 41.19     0.119 C 
ATOM     29  CG  ASN A 279     205.159 182.822 189.747  1.00 49.81     0.230 C 
ATOM     30  OD1 ASN A 279     205.201 182.832 188.519  1.00 57.93    -0.273 OA
ATOM     31  ND2 ASN A 279     204.136 182.318 190.424  1.00 54.39    -0.369 N 
ATOM     32 2HD2 ASN A 279     204.102 182.310 191.443  1.00  0.00     0.159 HD
ATOM     33 1HD2 ASN A 279     203.371 181.930 189.873  1.00  0.00     0.159 HD
ATOM     34  CA  PHE A 280     202.335 184.098 192.325  1.00 48.50     0.164 C 
ATOM     35  CB  PHE A 280     201.775 185.418 192.860  1.00 46.97     0.058 C 
ATOM     36  CG  PHE A 280     201.705 185.476 194.352  1.00 48.53    -0.020 A 
ATOM     37  CD2 PHE A 280     202.585 186.273 195.071  1.00 47.66    -0.004 A 
ATOM     38  CE2 PHE A 280     202.525 186.319 196.452  1.00 56.11    -0.000 A 
ATOM     39  CZ  PHE A 280     201.582 185.557 197.129  1.00 54.55    -0.000 A 
ATOM     40  CE1 PHE A 280     200.704 184.759 196.422  1.00 58.17    -0.000 A 
ATOM     41  CD1 PHE A 280     200.770 184.717 195.040  1.00 57.66    -0.004 A 
ATOM     42  CA  ARG A 281     199.282 182.045 191.372  1.00 53.90     0.159 C 
ATOM     43  CB  ARG A 281     199.250 180.605 191.908  1.00 43.93     0.034 C 
ATOM     44  CG  ARG A 281     198.050 180.313 192.802  1.00 59.82     0.027 C 
ATOM     45  CD  ARG A 281     198.455 180.177 194.262  1.00 43.25     0.116 C 
ATOM     46  NE  ARG A 281     197.786 179.039 194.884  1.00 49.00    -0.212 N 
ATOM     47  CZ  ARG A 281     197.965 178.663 196.146  1.00 62.89     0.666 C 
ATOM     48  NH1 ARG A 281     198.803 179.330 196.930  1.00 74.80    -0.235 N 
ATOM     49  NH2 ARG A 281     197.310 177.618 196.621  1.00 61.99    -0.235 N 
ATOM     50 2HH1 ARG A 281     199.309 180.136 196.564  1.00  0.00     0.174 HD
ATOM     51 1HH1 ARG A 281     198.941 179.041 197.899  1.00  0.00     0.174 HD
ATOM     52 2HH2 ARG A 281     196.667 177.105 196.018  1.00  0.00     0.174 HD
ATOM     53 1HH2 ARG A 281     197.448 177.329 197.589  1.00  0.00     0.174 HD
ATOM     54  HE  ARG A 281     197.139 178.496 194.313  1.00  0.00     0.178 HD
ATOM     55  CA  LYS A 299     201.486 180.756 187.756  1.00 49.56     0.159 C 
ATOM     56  CB  LYS A 299     202.397 179.560 188.025  1.00 54.03     0.032 C 
ATOM     57  CG  LYS A 299     201.622 178.289 188.333  1.00 58.52     0.004 C 
ATOM     58  CD  LYS A 299     201.001 177.672 187.097  1.00 56.71     0.032 C 
ATOM     59  CE  LYS A 299     199.533 177.365 187.335  1.00 52.70     0.206 C 
ATOM     60  NZ  LYS A 299     199.013 176.357 186.380  1.00 62.42    -0.064 N 
ATOM     61  HZ3 LYS A 299     198.138 176.665 185.956  1.00  0.00     0.275 HD
ATOM     62  HZ2 LYS A 299     199.591 176.310 185.541  1.00  0.00     0.275 HD
ATOM     63  HZ1 LYS A 299     198.911 175.438 186.810  1.00  0.00     0.275 HD
ATOM     64  CA  ARG A 126     203.924 165.784 202.144  1.00149.40     0.159 C 
ATOM     65  CB  ARG A 126     204.246 164.987 200.881  1.00133.40     0.034 C 
ATOM     66  CG  ARG A 126     204.422 165.826 199.627  1.00130.01     0.027 C 
ATOM     67  CD  ARG A 126     205.878 165.828 199.188  1.00131.26     0.116 C 
ATOM     68  NE  ARG A 126     206.508 167.138 199.327  1.00126.38    -0.212 N 
ATOM     69  CZ  ARG A 126     207.800 167.365 199.119  1.00123.75     0.666 C 
ATOM     70  NH1 ARG A 126     208.597 166.370 198.759  1.00121.38    -0.235 N 
ATOM     71  NH2 ARG A 126     208.298 168.585 199.269  1.00134.78    -0.235 N 
ATOM     72 2HH1 ARG A 126     208.215 165.431 198.644  1.00  0.00     0.174 HD
ATOM     73 1HH1 ARG A 126     209.590 166.544 198.599  1.00  0.00     0.174 HD
ATOM     74 2HH2 ARG A 126     207.685 169.351 199.546  1.00  0.00     0.174 HD
ATOM     75 1HH2 ARG A 126     209.290 168.760 199.109  1.00  0.00     0.174 HD
ATOM     76  HE  ARG A 126     205.920 167.926 199.600  1.00  0.00     0.178 HD
ATOM     77  CA  LEU A 127     201.123 168.268 202.807  1.00153.88     0.160 C 
ATOM     78  CB  LEU A 127     200.758 168.860 204.171  1.00147.20     0.032 C 
ATOM     79  CG  LEU A 127     199.450 168.420 204.832  1.00145.17     0.002 C 
ATOM     80  CD1 LEU A 127     198.264 168.727 203.923  1.00 88.14     0.000 C 
ATOM     81  CD2 LEU A 127     199.490 166.940 205.183  1.00139.20     0.000 C 
ATOM     82  CA  GLU A 156     200.026 171.816 187.502  1.00 66.36     0.160 C 
ATOM     83  CB  GLU A 156     200.353 173.154 188.166  1.00 55.62     0.043 C 
ATOM     84  CG  GLU A 156     199.339 173.724 189.125  1.00 70.57     0.100 C 
ATOM     85  CD  GLU A 156     199.609 173.263 190.551  1.00 81.66     0.185 C 
ATOM     86  OE1 GLU A 156     199.029 172.238 190.972  1.00 65.56    -0.647 OA
ATOM     87  OE2 GLU A 156     200.413 173.919 191.248  1.00 89.99    -0.647 OA
ATOM     88  CA  VAL A 157     203.226 170.537 185.857  1.00 71.99     0.159 C 
ATOM     89  CB  VAL A 157     203.064 169.542 184.685  1.00 75.94     0.029 C 
ATOM     90  CG1 VAL A 157     203.766 168.235 184.994  1.00 76.66     0.002 C 
ATOM     91  CG2 VAL A 157     201.604 169.297 184.380  1.00 67.05     0.002 C 
ATOM     92  CA  ASP A 158     206.666 172.211 185.854  1.00 94.88     0.170 C 
ATOM     93  CB  ASP A 158     206.964 172.988 187.135  1.00104.96     0.129 C 
ATOM     94  CG  ASP A 158     206.373 172.332 188.367  1.00119.19     0.188 C 
ATOM     95  OD1 ASP A 158     206.916 171.299 188.816  1.00111.95    -0.647 OA
ATOM     96  OD2 ASP A 158     205.367 172.857 188.889  1.00131.05    -0.647 OA
ATOM     97  CA  THR A 235     212.747 184.477 187.590  1.00 53.73     0.186 C 
ATOM     98  CB  THR A 235     214.055 184.661 188.369  1.00 53.83     0.140 C 
ATOM     99  CG2 THR A 235     214.343 183.452 189.231  1.00 69.14     0.034 C 
ATOM    100  OG1 THR A 235     215.135 184.850 187.444  1.00 58.73    -0.382 OA
ATOM    101  HG1 THR A 235     215.961 184.731 187.898  1.00  0.00     0.210 HD
ATOM    102  CA  PHE A 301     206.276 185.417 186.926  1.00 52.37     0.164 C 
ATOM    103  CB  PHE A 301     207.456 184.607 186.381  1.00 49.06     0.058 C 
ATOM    104  CG  PHE A 301     208.582 185.432 185.846  1.00 51.77    -0.020 A 
ATOM    105  CD1 PHE A 301     209.169 185.128 184.626  1.00 53.15    -0.004 A 
ATOM    106  CE1 PHE A 301     210.207 185.898 184.127  1.00 57.48    -0.000 A 
ATOM    107  CZ  PHE A 301     210.648 186.998 184.831  1.00 55.39    -0.000 A 
ATOM    108  CE2 PHE A 301     210.054 187.326 186.038  1.00 55.43    -0.000 A 
ATOM    109  CD2 PHE A 301     209.022 186.549 186.536  1.00 51.71    -0.004 A 
ENDMDL
